#------------------------------------------------------------------------------
#$Date: 2020-02-05 07:55:53 +0200 (Wed, 05 Feb 2020) $
#$Revision: 247895 $
#$URL: file:///home/coder/svn-repositories/cod/cif/1/55/65/1556577.cif $
#------------------------------------------------------------------------------
#
# This file is available in the Crystallography Open Database (COD),
# http://www.crystallography.net/
#
# All data on this site have been placed in the public domain by the
# contributors.
#
data_1556577
loop_
_publ_author_name
'Broadhurst, Edward T.'
'Xu, Hongyi'
'Clabbers, Max T. B.'
'Lightowler, Molly'
'Nudelman, Fabio'
'Zou, Xiaodong'
'Parsons, Simon'
_publ_section_title
;
 Polymorph evolution during crystal growth studied by 3D electron
 diffraction
;
_journal_issue                   1
_journal_name_full               IUCrJ
_journal_page_first              5
_journal_page_last               9
_journal_paper_doi               10.1107/S2052252519016105
_journal_volume                  7
_journal_year                    2020
_chemical_formula_moiety         'C2 H5 N O2'
_chemical_formula_sum            'C2 H5 N O2'
_chemical_formula_weight         75.07
_chemical_name_common            alpha-glycine
_space_group_crystal_system      monoclinic
_space_group_IT_number           14
_space_group_name_Hall           '-P 2yn'
_space_group_name_H-M_alt        'P 1 21/n 1'
_atom_sites_solution_hydrogens   difmap
_atom_sites_solution_primary     'dual space'
_audit_creation_method           SHELXL-2018/3
_cell_angle_alpha                90
_cell_angle_beta                 111.14(3)
_cell_angle_gamma                90
_cell_formula_units_Z            4
_cell_length_a                   5.2230(10)
_cell_length_b                   12.435(3)
_cell_length_c                   5.5630(11)
_cell_measurement_temperature    103(2)
_cell_volume                     336.99(14)
_computing_cell_refinement       REDp
_computing_data_reduction        XDS
_computing_structure_refinement  'SHELXL-2018/3 (Sheldrick, 2018)'
_computing_structure_solution    'SHELXT 2018/2 (Sheldrick, 2018)'
_diffrn_ambient_temperature      103(2)
_diffrn_measured_fraction_theta_full 0.849
_diffrn_measured_fraction_theta_max 0.834
_diffrn_measurement_device_type
;
JEOL JEM-2100 LaB6 transmission electron microscope
;
_diffrn_measurement_method       'Phi scan'
_diffrn_radiation_type           electrons
_diffrn_radiation_wavelength     0.02508
_diffrn_reflns_av_R_equivalents  0.3183
_diffrn_reflns_av_unetI/netI     0.2095
_diffrn_reflns_Laue_measured_fraction_full 0.849
_diffrn_reflns_Laue_measured_fraction_max 0.834
_diffrn_reflns_limit_h_max       7
_diffrn_reflns_limit_h_min       -7
_diffrn_reflns_limit_k_max       16
_diffrn_reflns_limit_k_min       -14
_diffrn_reflns_limit_l_max       7
_diffrn_reflns_limit_l_min       -7
_diffrn_reflns_number            5389
_diffrn_reflns_point_group_measured_fraction_full 0.849
_diffrn_reflns_point_group_measured_fraction_max 0.834
_diffrn_reflns_theta_full        0.862
_diffrn_reflns_theta_max         1.022
_diffrn_reflns_theta_min         0.116
_exptl_absorpt_coefficient_mu    0.000
_exptl_crystal_colour            colourless
_exptl_crystal_density_diffrn    1.480
_exptl_crystal_description       lath
_exptl_crystal_F_000             53
_refine_diff_density_max         0.229
_refine_diff_density_min         -0.251
_refine_diff_density_rms         0.084
_refine_ls_extinction_method     none
_refine_ls_goodness_of_fit_ref   1.058
_refine_ls_hydrogen_treatment    idealised+riding
_refine_ls_matrix_type           full
_refine_ls_number_parameters     51
_refine_ls_number_reflns         850
_refine_ls_number_restraints     24
_refine_ls_restrained_S_all      1.044
_refine_ls_R_factor_all          0.2468
_refine_ls_R_factor_gt           0.2188
_refine_ls_shift/su_max          0.000
_refine_ls_shift/su_mean         0.000
_refine_ls_structure_factor_coef Fsqd
_refine_ls_weighting_details
'w=1/[\s^2^(Fo^2^)+(0.3805P)^2^+0.0200P] where P=(Fo^2^+2Fc^2^)/3'
_refine_ls_weighting_scheme      calc
_refine_ls_wR_factor_gt          0.4858
_refine_ls_wR_factor_ref         0.5176
_reflns_Friedel_coverage         0.000
_reflns_number_gt                561
_reflns_number_total             850
_reflns_threshold_expression     'I > 2\s(I)'
_cod_data_source_file            yc5021.cif
_cod_data_source_block           alpha
_cod_depositor_comments
'Adding full bibliography for 1556577--1556579.cif.'
_cod_original_cell_volume        336.99(13)
_cod_original_sg_symbol_H-M      'P 21/n'
_cod_database_code               1556577
_shelx_shelxl_version_number     2018/3
_shelx_space_group_comment
;
The symmetry employed for this shelxl refinement is uniquely defined
by the following loop, which should always be used as a source of
symmetry information in preference to the above space-group names.
They are only intended as comments.
;
_shelx_res_file
;
TITL alpha glycine P2(1)/n SOLVED SHELXT
    alpha.res
    created by SHELXL-2018/3 at 09:06:49 on 06-Aug-2019
CELL 0.02508 5.223 12.435 5.563 90 111.138 90
ZERR 4 0.001 0.0025 0.0011 0 0.03 0
LATT 1
SYMM 0.5-X,0.5+Y,0.5-Z
SFAC  C 0.731 36.995 1.195 11.297 0.456 2.814 0.125 0.346 0 0 0 0 0.77 12.011
SFAC  N 0.572 28.846 1.043 9.054 0.465 2.421 0.131 0.317 0 0 0 0 0.75 14.007
SFAC  O 0.455 23.78 0.917 7.622 0.472 2.144 0.138 0.296 0 0 0 0 0.73 15.999
SFAC  H 0.375 15.495 0.141 4.126 0.022 0.025 -0.101 46.884 0 0 0 0 0.32 1.008
UNIT 8 4 8 20
TEMP -170
RIGU 0.005
OMIT  -2   4   4
L.S. 20
RIGU 0.005
EADP H1 H2 H3
EADP H4 H5
BOND
ACTA
LIST 4
FMAP 2
PLAN 10
WGHT    0.380500    0.020000
FVAR       6.09733
N1    2    0.797195    0.411708    0.240661    11.00000    0.01494    0.03878 =
         0.00491    0.00011    0.00589   -0.00533
AFIX 138
H1    4    0.782766    0.398454    0.044030    11.00000    0.02615
H2    4    0.990866    0.380762    0.371464    11.00000    0.02615
H3    4    0.784868    0.496966    0.273471    11.00000    0.02615
AFIX   0
C1    1    0.564270    0.354413    0.286737    11.00000    0.01664    0.03286 =
         0.00444   -0.00163    0.00403   -0.00479
AFIX  24
H4    4    0.580245    0.263271    0.255929    11.00000    0.08236
H5    4    0.357915    0.384213    0.139915    11.00000    0.08236
AFIX   0
C2    1    0.571501    0.375162    0.566692    11.00000    0.01402    0.03042 =
         0.00368   -0.00160    0.00298   -0.00166
O1    3    0.805533    0.405747    0.736868    11.00000    0.01203    0.04108 =
         0.00496   -0.00427    0.00678   -0.00494
O2    3    0.348700    0.360314    0.606772    11.00000    0.01757    0.04758 =
         0.01126    0.00161    0.01052   -0.00048

HKLF 4




REM  alpha glycine P2(1)/n SOLVED SHELXT
REM wR2 = 0.517626, GooF = S = 1.05849, Restrained GooF = 1.04362 for all data
REM R1 = 0.218750 for 561 Fo > 4sig(Fo) and 0.246781 for all 850 data
REM 51 parameters refined using 24 restraints

END

WGHT      0.2000      0.0000

REM Highest difference peak  0.229,  deepest hole -0.251,  1-sigma level  0.084
Q1    1   0.6066  0.2975 -0.0497  11.00000  0.05    0.23
Q2    1   0.8168  0.5013  0.7530  11.00000  0.05    0.22
Q3    1   0.3092  0.2617  0.0527  11.00000  0.05    0.22
Q4    1   0.6004  0.2489  0.5751  11.00000  0.05    0.21
Q5    1   0.3728  0.2921 -0.0154  11.00000  0.05    0.21
Q6    1   0.3127  0.2423  0.5897  11.00000  0.05    0.21
Q7    1   0.5698  0.3030  0.0543  11.00000  0.05    0.21
Q8    1   0.9998  0.5057  0.4151  11.00000  0.05    0.21
Q9    1   0.7119  0.4379 -0.0355  11.00000  0.05    0.20
Q10   1   0.1898  0.2765  0.1375  11.00000  0.05    0.20
;
_shelx_res_checksum              42680
_shelx_hkl_file
;
   0  -1   0    4.10    4.70
   0   1   0    6.70    4.80
   0  -2   0  140.59   41.20
   0   2   0  141.09   41.10
   0  -3   0    1.90    8.50
   0   3   0   -3.40    7.60
   0  -4   0 6956.80 1957.30
   0   4   0 7081.39 1991.50
   0  -5   0   -5.80   19.20
   0   5   0    7.30   16.30
   0  -6   0  283.37  111.99
   0   6   0  198.48   78.29
   0  -7   0   -7.50   16.90
   0   7   0   -1.20   11.20
   0  -8   0 1697.53  632.44
   0   8   0  860.61  321.17
   0  -9   0   -2.40   18.30
   0   9   0   -2.30   11.00
   0 -10   0  157.58   66.49
   0  10   0  111.19   46.10
   0 -11   0   -1.00   14.30
   0  11   0    3.30   10.60
   0 -12   0  501.05  203.48
   0  12   0  397.56  159.38
   0 -13   0    1.70   16.50
   0  13   0    0.40   11.00
   0 -14   0   93.39   48.80
   0  14   0  113.39   50.49
   0  15   0    0.20    6.40
   0  16   0   35.50   20.30
   0  16   1    6.40    8.60
   0  15   1   51.49   25.00
   0 -14  -1   16.40   13.50
   0 -13  -1    2.20    6.90
   0 -12  -1   59.89   35.30
   0  11   1  360.76  144.49
   0 -11  -1  450.55  180.98
   0  10   1   35.00   16.90
   0 -10  -1   58.59   28.10
   0   9   1   67.09   29.00
   0  -9  -1   71.79   33.90
   0   8   1   26.20   13.60
   0  -8  -1   26.90   18.70
   0   7   1 1831.12  676.53
   0  -7  -1 1937.51  718.33
   0   6   1   51.59   21.70
   0  -6  -1   75.59   32.10
   0   5   1  818.42  304.87
   0   4   1   37.80   11.70
   0  -4  -1   50.49   15.50
   0  -3  -1  969.90  386.06
   0   2   1  472.95  188.28
   0  -2  -1  980.70  444.16
   0  -2  -1  564.64  224.88
   0   1   1 1777.42  500.75
   0   1   1 1875.21  399.46
   0   1   1 3473.65 1329.37
   0  -1  -1 1103.09  439.06
   0  -1  -1 1695.63  361.46
   0  -1  -1 2282.57 1033.50
   0  -1  -1 2135.59  601.44
   0   0   1   28.70   17.50
   0   0   1    2.90    6.10
   0   0  -1    4.10    2.30
   0   0  -1   -0.50    3.70
   0   0  -1   11.00    7.60
   0  -1   1 1360.66  384.76
   0   1  -1 1384.96  391.76
   0   1  -1 1267.37  504.25
   0   1  -1 1436.76  650.63
   0  -2   1 1074.39  305.37
   0  -2   1 1228.08  488.65
   0   2  -1 1044.30  296.17
   0   2  -1 1231.58  490.25
   0  -3   1 2606.64  736.63
   0   3  -1 2310.37  652.23
   0  -4   1   56.89   24.30
   0   4  -1   48.40   18.60
   0  -5   1  765.62  292.57
   0   5  -1  551.84  210.58
   0  -6   1   40.70   30.00
   0  -7   1 1715.43  642.34
   0  -8   1   20.40   24.90
   0   8  -1   19.50   17.70
   0  -9   1   59.39   37.00
   0   9  -1   57.89   31.30
   0 -10   1   21.60   22.30
   0  10  -1   28.10   19.10
   0 -11   1  238.18  106.69
   0  11  -1  333.27  135.99
   0 -12   1   26.40   31.10
   0  12  -1   62.39   37.10
   0 -13   1    7.60   21.10
   0  13  -1    3.40   10.50
   0 -14   1   21.90   26.20
   0  14  -1   22.10   17.00
   0  15  -1   79.69   35.80
   0  16  -1   11.90   11.70
   0  16   2   82.99   28.30
   0  15   2    2.10    4.90
   0  14   2   11.50    8.00
   0  13   2   21.60   15.30
   0 -13  -2   21.20   17.10
   0 -12  -2  456.65  209.88
   0  11   2   20.20   11.20
   0 -11  -2   16.10   10.80
   0  10   2  190.68   75.59
   0 -10  -2  134.19   56.39
   0   9   2   73.39   28.90
   0  -9  -2  104.89   40.90
   0   8   2   25.00   11.60
   0  -8  -2   17.00    9.80
   0   7   2  257.77   95.89
   0  -7  -2  190.98   72.49
   0  -6  -2  263.67   99.59
   0   4   2  186.98   64.39
   0  -4  -2  508.75  243.48
   0  -4  -2  257.87   88.69
   0   3   2 1324.27  632.74
   0   3   2  376.76   71.19
   0   3   2  875.61  299.97
   0   3   2 1648.64  613.24
   0  -3  -2  384.76   72.69
   0  -3  -2 2139.09  795.72
   0  -3  -2  974.30  333.97
   0  -3  -2 1554.94  743.03
   0   2   2  766.92  163.88
   0   2   2  925.11  356.66
   0   2   2  872.41  326.57
   0   2   2  765.32  304.77
   0   2   2  919.71  416.76
   0  -2  -2 1173.08  438.76
   0  -2  -2  664.73  141.99
   0  -2  -2  566.94  225.98
   0  -2  -2  772.72  350.26
   0  -2  -2  933.11  359.16
   0   1   2 1835.22  391.16
   0   1   2 1955.10  749.73
   0   1   2 2218.08 1004.70
   0   1   2 2141.09  851.91
   0   1   2 1594.24  451.25
   0  -1  -2 1280.77  363.66
   0  -1  -2 1918.91  409.06
   0  -1  -2 1855.71  738.53
   0  -1  -2 2336.27 1058.09
   0  -1  -2 1718.93  658.93
   0   0   2 2076.49  587.64
   0   0   2 1511.85  580.04
   0   0   2 4745.43 1887.91
   0   0  -2 4806.12 1023.90
   0   0  -2 1564.84  600.14
   0   0  -2 3972.10 1579.54
   0   0  -2 3161.38 1431.66
   0  -1   2 1015.60  290.87
   0   1  -2 1369.96  390.16
   0   1  -2 2624.84 1044.60
   0   1  -2 1892.11  857.01
   0  -2   2  623.74  282.97
   0  -2   2 1005.00  379.96
   0  -2   2  748.73  298.17
   0   2  -2  889.31  335.27
   0   2  -2  822.52  327.57
   0   2  -2  740.43  335.87
   0  -3   2 1683.13  632.14
   0  -3   2  879.71  420.56
   0   3  -2 1101.89  414.46
   0   3  -2  865.01  413.56
   0  -4   2  451.25  177.18
   0  -4   2  600.74  206.08
   0   4  -2  394.66  152.98
   0   4  -2  626.34  214.78
   0  -5   2  663.13  257.47
   0   5  -2  477.15  183.78
   0  -6   2  867.61  330.77
   0   6  -2  618.04  235.38
   0  -7   2  413.16  164.08
   0   7  -2  334.57  131.59
   0  -8   2   31.80   28.20
   0   8  -2   25.20   20.40
   0  -9   2  132.59   61.19
   0   9  -2   83.59   39.70
   0 -10   2  245.38  108.89
   0  10  -2  140.09   65.29
   0 -11   2   18.20   23.40
   0 -12   2  363.06  179.38
   0 -13   2   30.30   33.40
   0  13  -2    7.70   15.90
   0 -14   2    5.10   14.60
   0  14  -2    7.50   10.90
   0  15  -2    0.10    7.40
   0  16  -2   73.69   30.70
   0  16   3   39.80   13.80
   0  15   3    0.80    2.30
   0  14   3    9.10    6.80
   0 -14  -3    2.50    3.70
   0  13   3   24.70   10.90
   0 -13  -3   10.50    6.50
   0  12   3  104.99   42.30
   0 -12  -3   90.99   38.80
   0  11   3   16.50    9.70
   0 -11  -3    9.40    6.80
   0 -10  -3    7.40    8.10
   0  -9  -3   18.70    8.50
   0  -6  -3  455.65  204.08
   0   5   3   15.40   10.60
   0  -5  -3   10.80    7.60
   0  -5  -3   14.40    9.50
   0  -5  -3    5.50    4.00
   0   4   3  417.06  156.28
   0   4   3  140.89   27.80
   0   4   3   95.69   42.80
   0   4   3  138.59   52.79
   0  -4  -3  418.26  158.98
   0  -4  -3  101.99   45.30
   0   3   3  404.86   78.99
   0   3   3  645.54  243.18
   0   3   3  430.16  187.98
   0   3   3  360.16  135.89
   0   3   3  540.05  203.18
   0  -3  -3  660.83  248.28
   0  -3  -3  368.46   71.79
   0  -3  -3  280.27  105.99
   0  -3  -3  415.16  181.38
   0  -3  -3  659.23  248.08
   0   2   3 2766.12 1028.30
   0   2   3 2643.74  511.25
   0   2   3 2730.93 1010.10
   0   2   3 2529.35  951.30
   0   2   3 3710.13 1615.34
   0  -2  -3 2517.85  487.05
   0  -2  -3 1921.21  713.63
   0  -2  -3 3294.67 1434.46
   0  -2  -3 2394.76  889.61
   0   1   3  296.47  112.89
   0   1   3  339.07  131.89
   0   1   3  396.86   75.29
   0   1   3  339.07  116.69
   0   1   3  354.06  169.78
   0  -1  -3  403.56  193.48
   0  -1  -3  318.77   60.59
   0  -1  -3  257.57  102.49
   0  -1  -3  361.76  136.19
   0  -1  -3  377.76  129.89
   0   0   3   49.10   25.60
   0   0   3    6.00   14.30
   0   0   3    0.80    3.50
   0   0   3   23.20   16.80
   0   0  -3    7.50    2.70
   0   0  -3   16.20   14.50
   0   0  -3    0.90    3.80
   0   0  -3   20.50   12.50
   0  -1   3  525.65  251.87
   0  -1   3  383.16  131.59
   0   1  -3  216.58   89.39
   0   1  -3  471.95  226.18
   0   1  -3  470.75  161.78
   0  -2   3 2852.71 1242.18
   0  -2   3 1315.97  494.65
   0  -2   3 3713.23 1396.76
   0   2  -3 1543.15  575.24
   0   2  -3 2914.41 1096.09
   0   2  -3 2735.13 1190.98
   0  -3   3  460.45  201.28
   0  -3   3  692.53  265.67
   0  -3   3  343.17  129.49
   0   3  -3  477.45  183.48
   0   3  -3  369.06  139.29
   0   3  -3  422.46  184.58
   0  -4   3  182.18   80.39
   0  -4   3  704.63  270.27
   0  -4   3  426.26  160.78
   0   4  -3  443.26  171.08
   0   4  -3  435.56  164.38
   0   4  -3  152.78   67.29
   0  -5   3  144.69   68.29
   0  -5   3   24.40    9.10
   0   5  -3  114.79   52.69
   0   5  -3   21.90    8.30
   0  -6   3  849.72  331.07
   0  -6   3  840.72  277.17
   0   6  -3  670.73  259.67
   0   6  -3  878.11  289.47
   0  -7   3  599.84  229.38
   0  -7   3  192.08   66.29
   0   7  -3  413.16  157.78
   0  -8   3  186.98   83.29
   0   8  -3  124.99   55.49
   0  -9   3   51.69   36.30
   0   9  -3   41.60   27.20
   0 -10   3  195.88  104.49
   0  10  -3  105.19   60.29
   0 -11   3   26.30   32.40
   0  11  -3   19.10   21.20
   0 -12   3  420.86  175.88
   0  12  -3  206.08   91.79
   0 -13   3   19.60   21.70
   0  13  -3    7.10   11.90
   0 -14   3   23.60   22.80
   0 -14  -4    0.00    0.50
   0 -13  -4    0.50    1.20
   0 -12  -4   24.60   11.10
   0  11   4    0.40    3.30
   0 -11  -4    1.30    3.50
   0   8   4   18.00    8.60
   0  -8  -4   51.89   28.00
   0  -8  -4   23.90   10.70
   0   7   4    2.00    9.20
   0   7   4    5.20    4.10
   0  -7  -4   13.00    8.40
   0  -7  -4   -2.60    7.80
   0   6   4  384.16  194.48
   0   6   4  782.32  304.57
   0   6   4  284.97  109.29
   0  -6  -4 1333.57  518.35
   0  -6  -4  180.08   39.90
   0  -6  -4  344.17  131.89
   0  -6  -4  557.94  281.17
   0   5   4  863.11  400.06
   0   5   4  718.73  260.97
   0   5   4  239.68  112.29
   0   5   4  439.36  150.58
   0  -5  -4  335.27   73.39
   0  -5  -4  653.53  239.78
   0  -5  -4  443.56  151.88
   0  -5  -4  333.67  155.48
   0  -5  -4  676.83  315.57
   0   4   4  151.68   71.89
   0   4   4  172.18   68.49
   0   4   4  142.39   49.40
   0  -4  -4  177.58   69.59
   0  -4  -4   86.29   19.70
   0  -4  -4  121.39   51.59
   0  -4  -4  120.19   41.90
   0  -4  -4  149.09   70.39
   0   3   4  154.08   60.19
   0   3   4  163.28   64.09
   0   3   4  103.29   23.50
   0   3   4   89.59   31.50
   0   3   4  217.28  101.89
   0  -3  -4  245.18   95.49
   0  -3  -4  124.39   28.10
   0  -3  -4  163.18   76.69
   0  -3  -4  153.08   60.69
   0  -3  -4   98.49   34.50
   0   2   4  247.78   95.29
   0   2   4  332.07  122.79
   0   2   4  519.95   95.99
   0   2   4  175.98   58.49
   0   2   4  363.36  163.08
   0  -2  -4  269.47  105.29
   0  -2  -4  576.14  105.89
   0  -2  -4  425.36  190.68
   0  -2  -4  233.78   89.39
   0  -2  -4  153.08   51.09
   0   1   4  569.14  221.58
   0   1   4  383.46  152.68
   0   1   4  619.64  123.59
   0   1   4  443.86  146.49
   0   1   4  724.73  324.37
   0  -1  -4  245.58  102.99
   0  -1  -4  614.84  122.59
   0  -1  -4 1120.09  500.45
   0  -1  -4  612.94  237.88
   0  -1  -4  425.66  140.59
   0   0   4 1024.80  458.25
   0   0   4  506.55  197.78
   0   0   4  719.03  237.18
   0   0   4  574.54  225.28
   0   0  -4  645.84  128.59
   0   0  -4  355.36  145.49
   0   0  -4  618.64  204.18
   0   0  -4 1461.95  653.13
   0   0  -4  486.65  190.08
   0  -1   4  989.70  442.56
   0   1  -4   55.49   26.50
   0   1  -4  271.47  114.09
   0   1  -4  657.03  216.78
   0   1  -4  761.22  340.37
   0  -2   4  170.28   77.19
   0  -2   4  103.99   54.09
   0  -2   4  302.07  100.29
   0   2  -4  160.88   70.29
   0   2  -4  280.17   92.99
   0   2  -4  126.19   57.39
   0  -3   4   85.79   41.50
   0  -3   4  736.23  276.77
   0  -3   4   71.39   25.10
   0   3  -4 1056.79  387.66
   0   3  -4   78.99   27.80
   0   3  -4  121.49   57.59
   0  -4   4  150.28   71.09
   0  -4   4  179.48   78.59
   0  -4   4  110.49   38.30
   0   4  -4  160.48   67.59
   0   4  -4  101.99   35.50
   0   4  -4  103.19   49.20
   0  -5   4  597.94  278.37
   0  -5   4  559.24  213.08
   0  -5   4  880.11  300.57
   0   5  -4  394.66  151.28
   0   5  -4  770.12  263.17
   0   5  -4  429.46  200.18
   0  -6   4  541.65  223.18
   0  -6   4  443.56  224.18
   0   6  -4  344.47  143.89
   0   6  -4  966.00  368.76
   0   6  -4  448.06  226.18
   0  -7   4  187.58   88.39
   0  -7   4    6.70    5.00
   0   7  -4  101.19   49.99
   0   7  -4   12.30    6.30
   0  -8   4   89.19   61.19
   0  -8   4   84.29   33.70
   0   8  -4   65.59   42.00
   0   8  -4   91.89   36.40
   0  -9   4  695.33  328.17
   0  -9   4  410.36  146.89
   0   9  -4  461.75  219.18
   0   9  -4  439.36  157.08
   0 -10   4  260.37  137.89
   0  10  -4  169.58   91.09
   0 -11   4    9.20   22.10
   0  11  -4    3.90    9.10
   0 -12   4  173.28   79.19
   0  12  -4   97.79   45.90
   0 -13   4   66.19   42.00
   0  13  -4   28.90   21.70
   0 -14   4    7.50   13.20
   0  14  -4    2.70    5.40
   0  13   5    0.50    2.20
   0 -13  -5    3.30    3.20
   0  12   5    1.70    2.70
   0 -12  -5    8.50    4.70
   0  11   5    2.00    3.10
   0 -11  -5    4.50    5.00
   0  10   5    4.20    3.90
   0 -10  -5    9.50    7.60
   0 -10  -5    9.10    6.00
   0   9   5   -0.90    6.30
   0   9   5    2.80    3.30
   0  -9  -5    3.90    3.70
   0  -9  -5    1.40    5.80
   0  -9  -5    2.30    3.90
   0   8   5    8.50    9.80
   0   8   5    3.50    3.80
   0  -8  -5   10.60    7.60
   0  -8  -5    2.70    1.80
   0  -8  -5    5.70    4.80
   0  -8  -5    6.50    7.00
   0   7   5    6.90   17.20
   0   7   5   83.29   41.10
   0   7   5    3.30    8.30
   0   7   5    5.60    3.70
   0  -7  -5    6.70    7.50
   0  -7  -5    7.30    4.80
   0   6   5    7.00    9.10
   0   6   5   53.89   33.10
   0   6   5   24.00    9.80
   0  -6  -5   14.70   22.00
   0  -6  -5   19.40    5.10
   0  -6  -5   22.50    9.50
   0  -6  -5   20.00   13.10
   0   5   5   46.60   26.70
   0   5   5   64.99   33.30
   0   5   5   77.39   30.90
   0  -5  -5   54.39   32.10
   0  -5  -5   46.90    9.10
   0  -5  -5   35.30   24.90
   0  -5  -5   63.79   25.90
   0  -5  -5   53.39   29.10
   0   4   5   10.60    9.30
   0   4   5   55.39   31.40
   0   4   5    5.00    2.20
   0   4   5    3.80    4.10
   0   4   5   58.49   31.80
   0  -4  -5   12.20    9.70
   0  -4  -5    5.20    2.20
   0  -4  -5  185.78   92.39
   0  -4  -5   18.40   11.00
   0  -4  -5    4.80    4.40
   0   3   5   47.40   20.20
   0   3   5  177.68   86.89
   0   3   5   41.90    8.30
   0   3   5   66.79   35.60
   0  -3  -5   26.60    5.70
   0  -3  -5  130.39   69.59
   0  -3  -5   32.20   13.80
   0  -3  -5   55.29   29.20
   0   2   5   60.79   36.60
   0   2   5   27.50    6.00
   0   2   5   32.70   15.30
   0   2   5   20.30    9.20
   0  -2  -5   49.70   20.30
   0  -2  -5   20.10    4.70
   0  -2  -5   23.40   10.70
   0  -2  -5   21.20   19.40
   0   1   5   10.50    9.50
   0   1   5   19.00   18.70
   0   1   5   14.10    4.60
   0   1   5   12.40    6.10
   0   1   5   66.09   35.20
   0  -1  -5  118.69   60.89
   0  -1  -5   15.80    5.00
   0  -1  -5   10.10    9.50
   0  -1  -5    7.00    4.80
   0   0   5    8.30    9.40
   0   0   5    3.40   12.70
   0   0   5    1.00    2.40
   0   0   5   -0.20    3.10
   0   0   5    7.10    9.20
   0   0  -5    0.80    6.20
   0   0  -5    1.00    1.90
   0   0  -5    8.20    8.70
   0   0  -5    3.20    9.80
   0   0  -5    0.70    3.80
   0  -1   5    8.80    9.20
   0  -1   5   34.50   26.50
   0  -1   5   19.50    9.10
   0  -1   5   15.20   11.50
   0   1  -5   82.19   44.80
   0   1  -5   20.80   13.20
   0   1  -5    4.20    8.40
   0  -2   5   32.50   20.30
   0  -2   5   61.89   25.10
   0   2  -5   30.10   26.20
   0   2  -5   24.20   15.30
   0   2  -5   52.99   21.60
   0  -3   5   26.10   17.40
   0  -3   5   67.39   49.50
   0  -3   5   59.69   24.30
   0   3  -5  105.49   59.29
   0   3  -5   64.79   26.30
   0   3  -5   49.50   27.10
   0  -4   5    3.30    8.40
   0  -4   5  361.46  179.08
   0  -4   5    6.20    4.00
   0   4  -5  253.17  125.09
   0   4  -5    6.10    3.80
   0   4  -5   15.20   11.00
   0  -5   5   36.60   22.00
   0  -5   5   60.59   48.70
   0  -5   5   32.30   13.40
   0   5  -5   37.30   29.50
   0   5  -5   31.60   13.10
   0   5  -5   36.20   20.50
   0  -6   5   39.80   23.80
   0  -6   5  137.79   81.39
   0  -6   5   42.60   16.10
   0   6  -5  133.39   72.49
   0   6  -5   34.50   13.20
   0   6  -5   22.20   14.10
   0  -7   5   11.60   10.60
   0  -7   5  380.96  189.38
   0  -7   5   28.10   11.30
   0   7  -5  193.18  100.59
   0   7  -5   32.10   12.70
   0   7  -5    6.60    7.20
   0  -8   5  144.69   72.29
   0  -8   5    7.40    7.50
   0   8  -5  117.09   55.69
   0  -9   5   29.10   25.40
   0  -9   5   59.29   25.20
   0   9  -5    9.60   11.00
   0 -10   5   51.99   36.80
   0 -10   5   33.00   15.90
   0  10  -5   28.00   19.90
   0  10  -5   36.40   17.00
   0 -11   5   72.89   44.80
   0 -11   5   26.50   13.20
   0  11  -5   44.20   27.00
   0  11  -5   20.30   10.40
   0 -12   5  179.28   66.89
   0 -12   5   26.20   11.00
   0  12  -5   78.69   32.50
   0  13  -5   12.70   10.70
   0  10   6    6.90    8.30
   0  10   6    6.70    4.00
   0 -10  -6   14.80    6.90
   0 -10  -6   17.20   10.90
   0 -10  -6   17.20    7.90
   0   9   6   34.50   19.50
   0   9   6   20.50    8.80
   0  -9  -6  103.79   34.30
   0  -9  -6   68.39   33.30
   0  -9  -6   40.40   15.70
   0   8   6   22.00    6.50
   0   8   6    9.80    9.10
   0   8   6   16.70    7.40
   0  -8  -6   46.30   17.80
   0  -8  -6   13.00    9.10
   0   7   6    5.80    7.20
   0   7   6   52.09   32.00
   0   7   6   18.40    9.60
   0  -7  -6  177.28   73.59
   0  -7  -6   23.20   11.90
   0  -7  -6   15.50    9.80
   0   6   6   77.79   33.70
   0   6   6   43.70   21.60
   0   6   6   30.20   14.70
   0  -6  -6   50.19   25.60
   0  -6  -6   48.10   22.50
   0   5   6   94.69   41.20
   0   5   6  116.39   44.60
   0   5   6   71.09   30.10
   0   5   6   70.99   15.20
   0  -5  -6  250.17   97.19
   0  -5  -6   88.49   36.80
   0  -5  -6  119.59   50.69
   0   4   6  309.97   61.59
   0   4   6  318.07  121.19
   0   4   6  192.58   78.39
   0   4   6  575.84  239.68
   0  -4  -6  170.68   70.79
   0  -4  -6  415.16  172.68
   0   3   6   64.29   30.80
   0   3   6   35.40   18.90
   0   3   6   61.59   25.70
   0   3   6   31.40    7.50
   0  -3  -6   73.59   37.70
   0  -3  -6   26.10   16.40
   0  -3  -6   46.00   19.60
   0  -3  -6   64.09   29.90
   0   2   6   24.00   14.30
   0   2   6   34.30   17.80
   0  -2  -6   56.19   33.00
   0  -2  -6   28.10   15.70
   0  -2  -6   43.10   20.80
   0   1   6   11.60    8.90
   0   1   6  415.76  155.68
   0   1   6    7.70    4.90
   0  -1  -6  407.16  152.88
   0  -1  -6    7.40    3.10
   0  -1  -6    7.70    5.40
   0  -1  -6   33.90   16.90
   0   0   6 1065.39  477.15
   0   0   6  942.71  183.68
   0   0   6  898.91  355.36
   0   0  -6  704.33  137.49
   0   0  -6  290.37  123.39
   0   0  -6  609.04  240.88
   0   0  -6 1586.64  709.43
   0  -1   6    7.90    8.20
   0  -1   6    4.90    8.10
   0  -1   6   15.50    8.30
   0  -1   6    0.70    1.10
   0   1  -6   11.60    7.30
   0   1  -6   10.20    7.60
   0  -2   6   26.20   14.70
   0  -2   6   26.90   12.40
   0   2  -6  101.49   49.90
   0   2  -6   19.00   10.90
   0   2  -6   32.70   14.50
   0  -3   6    9.70    9.00
   0  -3   6   31.60   14.30
   0   3  -6   47.80   27.80
   0   3  -6    9.30    7.40
   0   3  -6   46.20   19.80
   0  -4   6  244.68  103.09
   0   4  -6  147.89   62.29
   0   4  -6  278.37  116.39
   0  -5   6   78.19   34.60
   0   5  -6   62.39   31.50
   0   5  -6   99.79   42.60
   0   5  -6   51.09   21.50
   0  -6   6   49.60   23.70
   0  -6   6   40.40   18.50
   0   6  -6   20.00   15.60
   0   6  -6   40.20   18.90
   0   6  -6   40.70   18.60
   0  -7   6   50.59   24.50
   0   7  -6   21.80   16.70
   0   7  -6   35.10   17.20
   0   7  -6   36.20   16.90
   0  -8   6   30.10   17.90
   0  -8   6   54.29   20.40
   0   8  -6   35.50   18.10
   0   8  -6   34.70   18.30
   0   8  -6   62.69   23.30
   0  -9   6   52.09   26.90
   0  -9   6  139.19   50.99
   0   9  -6   65.49   27.50
   0   9  -6  120.19   44.10
   0 -10   6    8.70    7.60
   0 -10   6   20.90    8.90
   0  10  -6    9.30    8.20
   0   5   7   17.00    5.50
   0   5   7   32.80   17.30
   0   5   7   13.50    6.40
   0  -5  -7   20.80   12.90
   0   4   7    2.60    2.20
   0   4   7   96.29   44.60
   0  -4  -7    2.90    4.10
   0   3   7   55.79   13.80
   0   3   7  150.18   68.29
   0   3   7   35.70   13.80
   0  -3  -7   66.89   31.00
   0  -3  -7   87.09   33.00
   0   2   7   17.90   11.30
   0   2   7   34.10   10.30
   0  -2  -7   23.80   13.50
   0  -2  -7   13.40    6.50
   0   1   7   81.59   39.70
   0   1   7   82.59   22.40
   0   1   7   48.50   18.40
   0  -1  -7   13.60   10.70
   0  -1  -7   28.20   11.40
   0  -1  -7   89.59   43.20
   0   0   7    8.00    8.50
   0   0   7    0.40    2.30
   0   0   7    0.50    2.40
   0   0  -7   -0.50    3.20
   0   0  -7   -0.30    2.20
   0  -1   7   83.59   40.90
   0  -1   7   13.90    5.10
   0  -1   7   73.79   27.60
   0   1  -7   80.89   30.20
   0  -2   7   38.90   20.80
   0  -2   7   18.80    8.20
   0   2  -7    5.90    7.00
   0  -3   7  230.18  104.19
   0  -3   7  101.79   37.00
   0   3  -7   24.60   12.70
   0  -4   7    4.40    6.80
   0  -4   7    9.00    4.80
   0   4  -7   18.10   11.10
   0  -5   7   13.80   10.50
   0  -5   7   15.70    7.20
   0   5  -7    1.40    4.00
  -1   8  -6   24.80   13.10
   1  -8   6   36.50   19.80
   1  -8   6   63.09   23.10
  -1   7  -6   11.10    8.10
   1  -7   6   27.40   15.50
   1  -7   6   10.30    4.90
  -1   6  -6   22.90   12.90
   1  -6   6   18.10   12.20
   1  -6   6   33.80   12.90
  -1   5  -6   21.60   12.80
   1  -5   6   34.10   18.90
   1  -5   6   39.40   18.20
   1  -4   6   31.60   17.10
   1  -4   6   64.99   29.60
  -1   3  -6  222.48   93.89
   1  -3   6   98.99   44.80
   1  -3   6  566.54  245.48
  -1   2  -6  383.46  156.28
   1  -2   6  509.35  217.08
   1  -2   6  348.97  151.58
   1  -1   6  210.78   88.99
   1  -1   6  114.89   47.30
  -1   0  -6    0.30    3.90
   1   0   6  118.19   50.89
  -1  -1  -6   24.50   16.00
  -1  -1  -6  132.19   55.49
   1   1   6   65.19   27.00
   1   1   6   27.90   14.30
   1   1   6  117.79   50.69
  -1  -2  -6  472.95  189.78
  -1  -2  -6  279.27   99.69
   1   2   6  302.87   60.99
   1   2   6  241.68   85.99
   1   2   6  267.47  116.79
   1   2   6  664.33  282.37
   1   3   6  306.47  121.59
   1   3   6  324.67  138.99
   1   3   6   37.80   17.70
   1   4   6   90.39   40.10
   1   4   6   44.50   10.00
   1   4   6   37.90   17.70
   1   4   6   97.29   43.30
   1   5   6   69.09   31.60
   1   5   6   41.50    9.20
   1   5   6   41.50   19.50
   1   5   6   56.19   26.30
   1   6   6   28.10   16.30
   1   6   6   25.90    7.30
   1   6   6   43.90   16.80
   1   6   6   57.79   29.20
   1   7   6    7.40    3.10
   1   7   6    2.50    6.40
   1   7   6   11.80    5.60
   1   8   6    5.70    8.00
   1   8   6   18.40    7.80
  -1  11  -5   -0.10    1.10
   1 -11   5    0.80    7.60
   1 -11   5    3.50    3.20
  -1  10  -5    1.10    2.90
   1 -10   5    2.70    8.70
  -1   9  -5    2.80    5.70
   1  -9   5   20.50   21.40
   1  -9   5   25.90   12.70
  -1   8  -5   15.70   12.30
  -1   8  -5   44.60   19.20
   1  -8   5   51.79   22.00
   1  -8   5   11.20    9.30
  -1   7  -5    6.00    5.50
  -1   7  -5   13.20   11.90
  -1   7  -5   17.70    8.50
   1  -7   5   19.30   19.60
   1  -7   5   11.70    6.30
   1  -7   5    7.10    9.20
  -1   6  -5    2.00    5.50
  -1   6  -5    0.10    4.80
  -1   6  -5    4.80    4.00
   1  -6   5   38.80   29.90
   1  -6   5   10.50    9.20
  -1   5  -5   44.30   21.20
  -1   5  -5   24.60   10.80
   1  -5   5  185.28   85.49
   1  -5   5   36.70   18.90
   1  -5   5   35.40   14.90
  -1   4  -5   26.60   15.30
  -1   4  -5   46.30   32.40
   1  -4   5   78.39   50.69
   1  -4   5   25.00    9.80
   1  -4   5   20.40   14.20
  -1   3  -5   49.99   26.60
  -1   3  -5   68.99   41.30
  -1   3  -5   74.89   27.70
   1  -3   5  131.59   74.19
   1  -3   5   70.29   26.00
   1  -3   5   27.20   17.40
  -1   2  -5    6.20    8.00
  -1   2  -5   83.49   49.80
  -1   2  -5    5.30    3.60
   1  -2   5  192.88   99.89
   1  -2   5    4.00    3.00
   1  -2   5   13.50   12.40
  -1   1  -5  148.19   74.09
   1  -1   5   80.29   49.30
   1  -1   5  114.29   58.39
   1  -1   5   80.19   29.50
  -1   0  -5   11.70   16.00
  -1   0  -5   23.10   16.40
  -1   0  -5   32.50   12.90
  -1   0  -5   62.79   32.50
   1   0   5   34.40   20.60
  -1  -1  -5  266.07  131.79
  -1  -1  -5   69.49   16.30
  -1  -1  -5   53.59   20.00
  -1  -1  -5   31.00   18.90
   1   1   5   73.99   17.20
   1   1   5   23.50   14.60
   1   1   5   58.29   21.60
   1   1   5  142.19   71.99
  -1  -2  -5   33.30   18.00
  -1  -2  -5    2.40    1.80
  -1  -2  -5    1.10    3.30
  -1  -2  -5   36.70   20.70
   1   2   5    2.90    2.00
   1   2   5   38.80   20.70
   1   2   5    1.40    2.30
   1   2   5   10.90    9.90
  -1  -3  -5   55.09   29.40
  -1  -3  -5  134.39   67.19
  -1  -3  -5   41.50   15.80
   1   3   5   71.29   33.80
   1   3   5  197.28   98.89
  -1  -4  -5   29.20    7.70
  -1  -4  -5   36.80   20.30
  -1  -4  -5   40.10   21.60
  -1  -4  -5   28.50   11.50
   1   4   5   23.50    6.20
   1   4   5   48.70   24.10
   1   4   5   21.30    8.90
   1   4   5   43.10   24.20
  -1  -5  -5   28.10   19.90
   1   5   5   39.90    8.40
   1   5   5   68.09   33.60
   1   5   5   44.30   18.70
  -1  -6  -5    3.10    5.50
  -1  -6  -5   -3.20   10.50
  -1  -6  -5    0.40    3.80
   1   6   5   -7.10   13.30
   1   6   5    1.30    1.40
   1   6   5   -0.10    2.50
   1   6   5   -2.30    6.50
  -1  -7  -5    5.20    5.90
  -1  -7  -5    5.60    4.90
   1   7   5   -1.10    7.20
   1   7   5    3.20    3.20
  -1  -8  -5   29.00   14.10
  -1  -8  -5    7.20    5.00
   1   8   5   43.70   21.60
   1   8   5    8.00    4.70
  -1  -9  -5    1.80    6.40
  -1  -9  -5    3.70    4.70
   1   9   5   -0.70    7.40
   1   9   5    3.30    3.40
  -1 -10  -5    3.10    6.10
   1  10   5    2.90    2.80
   1  11   5    0.40    2.10
  -1  14  -4    1.00    3.90
  -1  13  -4   12.70    9.70
   1 -13   4   12.10   13.60
  -1  12  -4    3.40    6.80
   1 -12   4   22.70   22.70
  -1  11  -4    0.00    1.90
   1 -11   4    9.80   15.90
  -1  10  -4    3.20    6.50
   1 -10   4   19.30   22.00
  -1   9  -4   21.10   17.40
  -1   9  -4   34.40   14.80
   1  -9   4   28.80   12.80
  -1   8  -4   18.00   18.20
  -1   8  -4   42.60   16.20
   1  -8   4   60.99   45.20
  -1   7  -4    5.90   11.40
  -1   7  -4   29.30   12.50
   1  -7   4   28.30   30.60
   1  -7   4   35.60   14.80
   1  -7   4   14.90   13.10
  -1   6  -4  533.95  267.77
  -1   6  -4  639.14  296.07
   1  -6   4 1571.94  713.93
   1  -6   4  948.41  365.86
   1  -6   4  687.33  345.17
  -1   5  -4   30.00   17.50
  -1   5  -4   78.19   40.70
  -1   5  -4   44.80   18.00
   1  -5   4   93.59   50.49
   1  -5   4   50.49   20.10
   1  -5   4   70.09   38.10
  -1   4  -4  130.19   66.49
  -1   4  -4  125.19   57.89
  -1   4  -4   95.39   37.00
   1  -4   4  163.78   76.99
   1  -4   4  124.69   48.10
   1  -4   4  102.29   53.29
  -1   3  -4   26.70   16.50
  -1   3  -4   13.80   17.30
  -1   3  -4   11.10    5.50
   1  -3   4   24.20   23.30
   1  -3   4   11.70    6.20
   1  -3   4   58.59   32.80
  -1   2  -4 3579.04 1291.37
  -1   2  -4 3563.04 1650.23
   1  -2   4 3652.53 1321.37
   1  -2   4 3662.13 1249.47
   1  -2   4 5189.68 2404.36
  -1   1  -4  129.99   61.59
  -1   1  -4   60.09   21.40
   1  -1   4  109.49   53.19
   1  -1   4   68.19   24.20
  -1   0  -4   36.10   21.90
  -1   0  -4  418.96  194.88
  -1   0  -4    0.80    3.80
   1   0   4  264.27  123.69
  -1  -1  -4   84.79   40.50
  -1  -1  -4   46.60   11.60
  -1  -1  -4   46.90   16.90
  -1  -1  -4   59.19   32.70
   1   1   4   63.99   14.90
   1   1   4   33.50   21.10
   1   1   4   42.90   15.40
   1   1   4   66.89   33.20
  -1  -2  -4 2789.72 1267.67
  -1  -2  -4 3454.45  750.32
  -1  -2  -4 3620.64 1677.73
  -1  -2  -4 2287.37  780.32
   1   2   4 2312.37 1050.69
   1   2   4 4831.72 2237.58
   1   2   4 2865.51  977.50
  -1  -3  -4   14.50    4.60
  -1  -3  -4  190.58   90.09
  -1  -3  -4   49.99   27.20
  -1  -3  -4    7.10    5.20
   1   3   4   11.00    3.70
   1   3   4  234.78  109.49
   1   3   4   13.50    6.90
   1   3   4   95.79   50.09
  -1  -4  -4  102.19   52.69
  -1  -4  -4   71.09   42.70
  -1  -4  -4   74.19   29.30
   1   4   4  128.49   65.39
   1   4   4   57.39   13.00
   1   4   4   85.39   44.90
   1   4   4   67.29   26.60
  -1  -5  -4   21.50   13.60
  -1  -5  -4   21.20    9.60
   1   5   4   19.70   14.10
  -1  -6  -4  864.41  432.66
  -1  -6  -4  440.36  170.28
   1   6   4  962.80  482.25
   1   6   4  487.05  188.08
  -1  -7  -4    3.10    9.00
   1   7   4   10.80   11.60
   1   7   4    3.80    3.60
  -1  -8  -4   39.50   21.40
   1   9   4    2.70    3.30
  -1 -10  -4    6.70    4.70
   1  10   4    2.30    3.30
  -1 -11  -4    0.70    2.80
  -1 -12  -4   10.10    6.10
  -1  15  -3    0.50    2.60
  -1  14  -3    3.90    5.80
   1 -14   3   20.20   17.80
  -1  13  -3   47.90   28.60
   1 -13   3  106.79   55.69
  -1  12  -3    2.70    7.00
   1 -12   3   44.10   31.30
  -1  11  -3    6.10   11.10
   1 -11   3   30.50   31.40
  -1  10  -3    9.50   13.60
  -1   9  -3  226.48  113.29
   1  -9   3  669.83  314.27
   1  -8   3   14.90   20.40
  -1   7  -3   94.79   44.60
  -1   7  -3   87.79   30.70
   1  -7   3  151.78   67.29
   1  -7   3  116.49   40.40
  -1   6  -3   63.39   31.40
  -1   6  -3   81.39   28.60
   1  -6   3  101.79   49.90
   1  -6   3   89.19   31.40
  -1   5  -3  512.55  229.58
  -1   5  -3 1244.38  473.95
  -1   5  -3 1161.88  382.86
   1  -5   3 1835.52  697.63
   1  -5   3 1103.49  363.66
   1  -5   3  629.54  281.97
  -1   4  -3   13.50    8.80
  -1   4  -3   52.29   30.50
  -1   4  -3   30.80   10.90
   1  -4   3   63.49   37.40
   1  -4   3   30.40   10.70
   1  -4   3   12.50   10.40
  -1   3  -3  294.97  132.29
  -1   3  -3  385.06  151.88
  -1   3  -3  215.78   71.39
   1  -3   3  227.58   75.29
  -1   2  -3   13.20    8.30
  -1   2  -3   18.90    8.60
   1  -2   3   25.30   10.90
  -1   1  -3 1301.87  566.94
  -1   1  -3 1687.23  634.64
  -1   0  -3   45.10    9.40
  -1   0  -3   78.09   34.70
  -1   0  -3  202.78   76.99
   1   0   3   42.60    8.90
  -1  -1  -3  890.61  343.17
  -1  -1  -3 1463.55  283.37
  -1  -1  -3 1494.85  650.93
   1   1   3 1568.04  303.57
   1   1   3 2098.89  913.91
   1   1   3  606.84  234.68
  -1  -2  -3   47.00   21.40
  -1  -2  -3   10.50    3.00
  -1  -2  -3   28.60   13.80
   1   2   3    4.10    3.60
   1   2   3   10.00    3.00
   1   2   3   25.00   12.60
   1   2   3   44.70   21.20
  -1  -3  -3  346.37  155.28
  -1  -3  -3  202.58   40.50
  -1  -3  -3  333.97  110.39
   1   3   3  187.28   37.50
   1   3   3  433.66  143.19
   1   3   3  315.27  141.49
  -1  -4  -3    2.20    6.00
   1   4   3    3.30    7.30
   1   4   3    8.20    4.20
  -1  -5  -3  516.45  170.38
  -1  -6  -3   64.99   31.70
  -1  -6  -3   16.30    7.10
   1   6   3   33.40   12.50
  -1  -7  -3   40.80   14.70
   1   7   3   29.90   11.00
  -1  -8  -3   17.80    8.00
   1   8   3    6.00    4.00
  -1  16  -2    3.20    5.40
  -1  15  -2   -0.50    4.50
  -1  14  -2  125.29   54.19
   1 -14   2  279.67  114.19
  -1  13  -2    0.60    7.30
   1 -13   2   63.29   39.00
  -1  12  -2   10.00   13.50
   1 -12   2   43.00   36.70
  -1  11  -2    4.50   10.60
   1  -9   2   66.99   37.20
  -1   8  -2  510.35  191.38
   1  -8   2  778.42  290.27
  -1   7  -2  152.58   64.99
   1  -7   2  279.97  117.69
  -1   6  -2  102.09   46.50
   1  -6   2  133.69   61.79
  -1   5  -2  275.47  108.99
  -1   3  -2   99.19   48.30
  -1   3  -2  256.77   88.29
   1  -3   2  114.99   56.19
   1  -3   2  214.38   73.69
  -1   2  -2  482.55  231.08
  -1   2  -2  311.47  106.89
   1  -2   2  448.06  214.58
   1  -2   2  266.47   91.49
  -1   1  -2  763.12  364.96
  -1   1  -2  678.13  232.48
   1  -1   2  709.13  339.07
   1  -1   2  572.94  196.48
  -1   0  -2  207.18   99.49
  -1   0  -2   -0.10    3.70
   1   0   2   17.70    4.00
   1   0   2  153.58   74.19
   1   0   2    2.10    3.60
  -1  -1  -2  461.75  137.19
  -1  -1  -2  388.86   73.39
  -1  -1  -2  830.52  397.26
  -1  -1  -2  729.53  250.07
   1   1   2  883.91  422.76
   1   1   2  493.75   93.09
   1   1   2  694.43  237.98
   1   1   2  447.06  132.99
  -1  -2  -2  483.45  231.48
  -1  -2  -2  163.88   31.00
  -1  -2  -2  262.67   90.29
   1   2   2  173.58   32.90
   1   2   2  292.87  100.59
   1   2   2  407.46  195.18
  -1  -3  -2  154.98   74.79
  -1  -3  -2  103.49   35.90
   1   3   2  120.39   58.49
   1   3   2   90.59   31.40
  -1  -4  -2  410.96  179.48
  -1  -4  -2  396.56  149.49
  -1  -5  -2  103.19   39.30
   1   5   2   66.89   25.80
  -1  -6  -2   30.30   12.20
   1   6   2   30.10   12.20
  -1 -11  -2   16.90   12.30
  -1 -13  -2    0.40    2.30
   1  13   2    2.50    7.70
   1  14   2  200.08   75.29
   1  16   2    4.20    4.60
  -1  16  -1    1.70    4.50
  -1  15  -1    7.80   10.40
  -1  14  -1   94.99   45.30
   1 -14   1  207.88   92.59
  -1  13  -1    6.60   11.60
   1 -13   1   21.90   25.30
  -1  12  -1    9.90   13.20
  -1  11  -1  102.19   48.20
   1 -11   1  237.28  104.79
  -1  10  -1  268.17  103.19
   1 -10   1  612.64  229.08
  -1   9  -1   71.19   32.70
   1  -9   1   72.59   37.30
  -1   8  -1  786.72  300.47
   1  -8   1  986.50  378.36
  -1   7  -1   46.90   24.40
   1  -7   1   98.19   46.50
  -1   2  -1   65.29   26.40
   1  -2   1   37.30   18.20
   1  -2   1   44.80   18.40
  -1   1  -1  202.48   92.09
  -1   1  -1  173.58   69.29
   1  -1   1  170.88   77.99
   1  -1   1  144.79   57.89
  -1   0  -1 2459.05 1113.39
  -1   0  -1 4020.10 1599.04
   1   0   1 2825.52 1279.47
   1   0   1 3738.83 1487.25
  -1  -1  -1  121.09   55.29
  -1  -1  -1  208.98   83.39
   1   1   1   72.39   33.40
   1   1   1  206.88   82.59
  -1  -2  -1   22.30    9.70
   1   2   1   30.20   12.80
   1   3   1   20.90    9.00
  -1  -8  -1  484.45  186.38
  -1  -9  -1    4.70    6.60
   1   9   1   35.60   17.40
  -1 -10  -1  140.89   59.29
   1  10   1  318.57  118.09
   1  12   1    6.30    9.90
  -1 -13  -1    0.10    3.60
   1  13   1    4.80    8.10
  -1 -14  -1   97.69   45.40
   1  14   1  123.99   51.89
   1  15   1   37.20   19.00
   1  16   1    4.00    4.80
  -1  16   0    0.70    4.70
  -1  15   0   57.69   27.50
  -1  14   0   80.09   37.90
   1 -14   0  175.28   79.89
  -1  13   0    7.00   10.30
   1 -13   0   22.60   25.40
  -1  11   0  638.44  251.97
   1 -11   0 1265.77  496.25
  -1  10   0  181.48   70.19
   1 -10   0  306.07  118.69
  -1   9   0   16.70   14.10
   1  -9   0   11.50   16.20
  -1   8   0 1680.93  624.14
  -1   0   0   10.90    2.90
  -1   0   0   16.30   11.70
  -1   0   0   19.80    8.00
   1   0   0    7.30    2.40
   1   0   0   19.30   13.90
  -1  -5   0  132.29   55.89
   1   5   0  213.78   82.59
  -1  -7   0 1430.06  534.65
  -1  -8   0  948.11  357.86
   1   8   0 1221.08  455.35
  -1  -9   0    6.30   13.80
   1   9   0    6.80    9.30
  -1 -10   0  220.18   86.99
   1  10   0  154.18   59.89
  -1 -12   0   53.19   36.70
   1  12   0  169.68   82.29
  -1 -13   0    5.20   13.60
  -1 -14   0  100.79   49.70
   1  14   0  145.79   63.19
   1  15   0   73.99   32.70
   1  16   0    2.20    6.10
  -1  16   1    3.70    6.00
  -1  15   1    4.60    6.20
  -1  14   1   10.30    9.60
  -1  13   1   38.70   23.90
  -1  12   1   95.99   49.40
  -1  11   1   12.00    9.60
  -1  10   1   20.20   11.90
  -1   2   1  168.88   75.69
  -1   2   1   95.59   20.80
  -1   2   1  130.29   59.39
  -1   2   1   63.19   25.60
   1  -2  -1   86.49   18.90
   1  -2  -1  150.88   67.09
   1  -2  -1   80.59   37.10
   1  -2  -1   85.69   34.50
  -1   1   1  449.66  203.88
  -1   1   1  246.18   97.69
  -1   1   1  292.77  116.69
   1  -1  -1  184.88   40.00
   1  -1  -1  392.76  156.48
   1  -1  -1  328.87  149.29
  -1   0   1  454.45  175.98
  -1   0   1  412.56  164.38
   1   0  -1  438.46  170.08
   1   0  -1  347.37   74.69
   1   0  -1  422.46  168.28
   1   0  -1  355.66  161.28
  -1  -1   1  126.89   58.09
  -1  -1   1   35.50   23.30
  -1  -1   1  249.58   99.49
   1   1  -1   26.60   22.40
   1   1  -1  221.68   88.49
   1   1  -1   95.89   44.20
   1   2  -1  222.18   66.59
  -1  -3   1  179.78   56.19
   1   3  -1  345.17  100.39
  -1  -5   1   17.80   17.30
   1   5  -1   18.00   15.90
  -1  -6   1   77.89   37.90
   1   6  -1   62.49   29.40
  -1  -7   1   30.30   22.00
   1   7  -1   13.40   12.40
  -1  -8   1   95.19   47.30
   1   8  -1  224.18   91.09
  -1  -9   1    8.40   15.10
   1   9  -1   14.00   14.80
  -1 -10   1   26.90   19.70
   1  10  -1   33.50   19.90
  -1 -11   1   19.80   19.00
   1  11  -1   42.10   24.00
   1  13  -1   17.00   18.00
  -1 -14   1    8.70   14.40
   1  14  -1   33.00   22.00
   1  15  -1    1.80    7.40
   1  16  -1    8.30   12.30
  -1  16   2    9.10    6.10
  -1  15   2    7.70    6.90
  -1  13   2   79.19   41.00
   1 -13  -2  125.79   63.19
  -1  12   2   31.60   18.60
  -1   5   2  240.58   82.69
   1  -5  -2  361.76  124.09
  -1   4   2  260.97   49.50
  -1   4   2  309.97  106.49
   1  -4  -2  227.08   43.20
   1  -4  -2  471.65  161.88
   1  -4  -2  696.63  332.97
  -1   3   2  387.26   73.19
   1  -3  -2  444.56   84.09
   1  -3  -2  738.83  222.98
   1  -3  -2  375.46  128.89
   1  -3  -2  383.16  183.48
  -1   2   2 7327.47 3317.07
  -1   2   2 7762.12 2183.58
   1  -2  -2 6515.85 1833.92
   1  -2  -2 6448.65 1373.46
   1  -2  -2 1925.01  766.02
   1  -2  -2 8161.48 3694.13
   1  -2  -2 5959.80 2281.67
  -1   1   2  266.77   78.19
  -1   1   2  231.58   50.19
  -1   1   2  318.47  144.59
  -1   1   2  177.18   70.99
   1  -1  -2  235.48   69.89
   1  -1  -2  232.18   50.39
   1  -1  -2  241.88  109.99
   1  -1  -2  297.77  116.79
   1  -1  -2  191.58   76.69
  -1   0   2   61.29   28.70
  -1   0   2    2.90    2.80
  -1   0   2    0.50    4.00
  -1   0   2    1.80    7.80
   1   0  -2    9.70    9.60
   1   0  -2    3.50    2.70
   1   0  -2    0.20    3.70
   1   0  -2   87.09   40.40
   1   0  -2   36.90   22.10
   1   1  -2   34.30   24.00
   1   1  -2  221.18  100.89
   1   1  -2  296.97  118.69
  -1  -2   2 9999.00 2814.02
   1   2  -2 8158.38 2296.37
   1   2  -2 3024.90 1203.48
   1   2  -2 2358.96 1068.59
  -1  -3   2  665.33  256.47
  -1  -3   2  977.50  334.87
   1   3  -2 1363.56  510.95
   1   3  -2  984.90  337.47
  -1  -4   2  924.81  353.76
  -1  -4   2 1101.49  377.36
   1   4  -2 1200.28  455.35
   1   4  -2 1031.20  353.46
  -1  -5   2 1405.46  531.15
   1   5  -2 1635.84  613.54
  -1  -6   2 2075.19  774.02
   1   6  -2 1825.62  678.73
  -1  -7   2  936.91  356.96
   1   7  -2 1462.65  545.15
  -1  -8   2  350.26  146.09
   1   8  -2  780.32  299.57
  -1  -9   2  235.68   98.49
   1   9  -2  401.96  153.88
  -1 -10   2   10.90   17.70
  -1 -11   2  306.37  132.19
   1  11  -2  332.67  138.69
  -1 -12   2   15.70   22.80
   1  12  -2   10.20   15.50
  -1 -13   2   67.89   47.40
   1  13  -2  112.09   62.39
  -1 -14   2   29.80   24.20
   1  14  -2   48.60   28.70
   1  15  -2   12.40   13.20
   1  16  -2   13.00   10.30
  -1  16   3    6.60    4.70
  -1  15   3    2.80    3.10
  -1  14   3   19.90   11.20
  -1  13   3   18.80   10.10
   1  -9  -3   68.59   26.90
   1  -8  -3    3.10    3.30
  -1   6   3   80.39   27.20
   1  -6  -3  171.78   77.49
   1  -6  -3  121.69   40.70
  -1   5   3  782.92  290.97
  -1   5   3  435.86   84.69
  -1   5   3 1360.96  592.74
  -1   5   3  423.46  159.88
   1  -5  -3 1025.50  447.06
   1  -5  -3  341.27   66.49
   1  -5  -3  864.41  321.17
   1  -5  -3 1023.90  385.36
   1  -5  -3  630.14  237.48
  -1   4   3  321.47  126.19
  -1   4   3   82.79   34.40
  -1   4   3  113.29   22.50
  -1   4   3  101.59   39.00
  -1   4   3   73.29   33.30
   1  -4  -3  244.58   94.49
   1  -4  -3  129.39   25.70
   1  -4  -3   77.99   35.20
   1  -4  -3  313.87  122.79
   1  -4  -3   98.89   38.20
  -1   3   3 1085.19  405.86
  -1   3   3  879.41  170.68
  -1   3   3 1164.48  507.45
   1  -3  -3 1197.68  521.85
   1  -3  -3 1008.20  195.58
   1  -3  -3 1091.29  407.76
   1  -3  -3  772.02  289.97
  -1   2   3  281.67  107.89
  -1   2   3  138.79   27.10
  -1   2   3  265.77   82.69
  -1   2   3  318.57  152.88
   1  -2  -3  154.08   29.90
   1  -2  -3  297.87  115.19
   1  -2  -3  233.98   71.89
   1  -2  -3  268.37  128.89
  -1   1   3 3011.80  566.54
  -1   1   3 2255.47  669.13
  -1   1   3 2051.89  980.40
   1  -1  -3 4109.49 1530.35
   1  -1  -3 3001.00  564.64
   1  -1  -3 1637.44  560.84
   1  -1  -3 1783.82  852.31
   1  -1  -3 2159.88  640.74
  -1   0   3   43.00   19.80
  -1   0   3   16.80   15.90
  -1   0   3   23.90    5.90
  -1   0   3   18.50    7.50
  -1   0   3   28.60   15.80
   1   0  -3   17.20   15.20
   1   0  -3   21.70    5.40
   1   0  -3   31.20   16.60
   1   0  -3   39.50   17.20
   1   0  -3   20.20    8.10
  -1  -1   3  377.76  115.19
  -1  -1   3 3547.15 1322.37
  -1  -1   3 3671.73 1754.02
  -1  -1   3 3211.58 1099.89
   1   1  -3 2592.54 1238.58
   1   1  -3  284.37   86.69
   1   1  -3 2953.40 1011.10
  -1  -2   3  156.68   75.89
  -1  -2   3  322.17  128.79
  -1  -2   3  140.19   48.50
   1   2  -3  262.37  103.99
   1   2  -3  115.69   40.10
   1   2  -3  160.58   77.69
  -1  -3   3  975.90  425.36
  -1  -3   3  774.02  296.77
  -1  -3   3  811.02  305.37
   1   3  -3 1320.77  494.05
   1   3  -3  884.21  332.97
   1   3  -3  839.12  365.86
  -1  -4   3  144.19   63.99
  -1  -4   3  147.29   67.19
  -1  -4   3  323.37  122.19
   1   4  -3  195.88   81.69
   1   4  -3  342.87  129.69
   1   4  -3  112.79   50.19
  -1  -5   3 1072.49  408.36
  -1  -5   3 1276.27  480.25
   1   5  -3 1102.49  414.76
   1   5  -3 1253.27  471.65
  -1  -6   3  237.28  103.99
  -1  -6   3  267.57   88.69
   1   6  -3  280.37  114.59
   1   6  -3  269.77   89.39
  -1  -7   3  375.46  155.18
   1   7  -3  364.96  146.79
  -1  -8   3    7.80   16.50
   1   8  -3    2.60   11.20
  -1  -9   3  414.16  174.48
   1   9  -3  479.05  194.88
  -1 -10   3  158.18   76.69
   1  10  -3  181.38   80.99
  -1 -11   3    5.30   18.90
   1  11  -3  131.49   71.29
  -1 -12   3    4.70   17.70
   1  12  -3   31.30   26.90
  -1 -13   3   18.80   20.40
   1  13  -3   25.40   19.70
  -1 -14   3   28.60   23.20
   1  14  -3    9.80   11.30
   1  15  -3    5.10    7.20
   1  16  -3   16.00   11.60
  -1  14   4  108.79   33.90
   1 -12  -4   18.70    8.80
  -1  11   4    9.50    5.80
   1 -11  -4   28.00   12.70
  -1   9   4   35.00   17.20
  -1   9   4    1.60    3.30
   1  -9  -4    2.10    3.60
  -1   8   4  181.08   82.99
   1  -8  -4  242.18  110.29
   1  -8  -4  183.58   93.49
  -1   7   4   22.90   15.80
  -1   7   4   36.30   15.00
   1  -7  -4   15.40   12.10
   1  -7  -4   61.69   24.60
  -1   6   4    1.70   22.50
  -1   6   4    7.30    5.70
  -1   6   4    2.50    2.20
  -1   6   4   17.80    7.20
  -1   6   4    7.30   10.10
   1  -6  -4    1.00    3.70
   1  -6  -4    1.40    1.90
   1  -6  -4    4.50    8.30
   1  -6  -4   17.70   22.70
   1  -6  -4   35.80   13.20
  -1   5   4  297.07  117.69
  -1   5   4  198.88   75.19
  -1   5   4  120.89   27.10
  -1   5   4  137.49   47.90
  -1   5   4   83.09   40.20
   1  -5  -4  331.07  123.39
   1  -5  -4  161.98   36.20
   1  -5  -4   95.19   45.70
   1  -5  -4  255.77  101.29
   1  -5  -4  164.98   57.09
  -1   4   4  449.66   89.99
  -1   4   4  724.43  271.37
  -1   4   4  496.25  222.58
  -1   4   4  393.06  129.89
  -1   4   4  921.91  348.37
   1  -4  -4  675.83  259.37
   1  -4  -4  536.25  107.19
   1  -4  -4  297.87   98.69
   1  -4  -4  328.47  147.69
   1  -4  -4  673.33  251.67
  -1   3   4   11.40   10.70
  -1   3   4   12.10   13.20
  -1   3   4    4.30    6.70
  -1   3   4    3.00    3.40
   1  -3  -4   16.00   12.40
   1  -3  -4   13.40   15.40
   1  -3  -4   16.20    6.80
   1  -3  -4    9.00    7.60
  -1   2   4  594.04  232.48
  -1   2   4  431.46   86.49
  -1   2   4  860.21  384.76
  -1   2   4  408.36  134.99
   1  -2  -4  715.83  275.17
   1  -2  -4  473.55   94.89
   1  -2  -4  816.82  365.26
   1  -2  -4  339.67  112.29
   1  -2  -4  532.35  207.88
  -1   1   4  163.98   68.49
  -1   1   4  224.88   93.09
  -1   1   4  167.58   75.69
  -1   1   4  160.58   53.39
   1  -1  -4  232.98  104.79
   1  -1  -4  236.18   98.79
   1  -1  -4  142.59   47.50
   1  -1  -4  203.08   81.99
  -1   0   4    0.80    2.20
  -1   0   4   79.89   37.90
  -1   0   4    3.10   11.80
  -1   0   4    0.50    3.20
  -1   0   4   10.90    8.30
   1   0  -4   33.70   21.30
   1   0  -4    4.40    2.80
   1   0  -4   -0.70    3.00
   1   0  -4   12.70    8.10
   1   0  -4   69.39   33.60
  -1  -1   4  262.87  106.69
  -1  -1   4  269.47  110.89
  -1  -1   4  249.58   50.59
  -1  -1   4  250.87  112.89
  -1  -1   4  225.68   74.89
   1   1  -4  262.67  109.79
   1   1  -4  238.28   79.09
   1   1  -4  243.98  109.79
   1   1  -4  178.28   72.89
  -1  -2   4  314.57  141.39
  -1  -2   4  542.65  213.78
  -1  -2   4  603.94  199.38
   1   2  -4  695.33  269.27
   1   2  -4  643.24  212.38
   1   2  -4  383.46  172.08
  -1  -3   4   10.90    8.60
  -1  -3   4    9.10   17.10
  -1  -3   4   17.10    6.80
   1   3  -4    6.80   13.80
   1   3  -4    8.90    4.00
   1   3  -4   10.60    8.20
  -1  -4   4  504.55  226.18
  -1  -4   4  907.51  353.16
  -1  -4   4  501.75  165.58
   1   4  -4  738.53  285.77
   1   4  -4  484.15  159.88
   1   4  -4  513.25  229.98
  -1  -5   4  160.28   76.09
  -1  -5   4  254.37  106.29
  -1  -5   4  254.27   87.49
   1   5  -4  316.87  123.49
   1   5  -4  262.87   90.39
   1   5  -4  143.29   67.89
  -1  -6   4    3.10    8.10
  -1  -6   4   11.60   18.00
  -1  -6   4   12.90    5.90
   1   6  -4    2.10    9.90
   1   6  -4   13.70    6.00
   1   6  -4    2.90    6.40
  -1  -7   4  116.79   61.39
  -1  -7   4  176.88   68.39
   1   7  -4  139.99   65.39
  -1  -8   4  470.35  198.08
  -1  -8   4  547.05  209.48
   1   8  -4  631.74  255.67
   1   8  -4  512.85  196.28
  -1  -9   4   10.00    6.00
   1   9  -4    5.80   13.50
   1  10  -4  220.98  112.99
  -1 -11   4   78.29   50.19
   1  11  -4   98.09   49.90
  -1 -12   4   37.00   29.20
   1  12  -4   64.09   33.40
  -1 -13   4    5.10   14.60
   1  13  -4    4.40    8.90
  -1 -14   4   90.79   40.60
   1  14  -4   88.29   35.30
   1  15  -4    2.40    5.70
  -1  13   5    0.60    2.60
   1 -13  -5    2.90    3.00
  -1  12   5    0.80    1.00
  -1  12   5    0.70    2.40
   1 -12  -5    1.00    2.70
  -1  11   5   22.90    9.90
  -1  11   5    3.20    3.80
   1 -11  -5    4.20    2.90
  -1  10   5    2.10    2.20
  -1  10   5    4.40    4.20
   1 -10  -5    1.50    2.10
   1 -10  -5   16.60    8.50
   1 -10  -5    2.90    5.70
  -1   9   5    6.10    7.80
  -1   9   5   55.59   23.20
  -1   9   5   12.70    7.10
   1  -9  -5   36.00   16.40
   1  -9  -5    5.40    2.30
   1  -9  -5   14.60    7.80
   1  -9  -5   -0.60    6.10
  -1   8   5    6.20   16.50
  -1   8   5    3.60    5.40
  -1   8   5    1.40    1.70
  -1   8   5    2.00    2.90
  -1   8   5    2.40    8.30
   1  -8  -5    5.40    7.70
   1  -8  -5    2.10    1.90
   1  -8  -5    7.20    4.70
   1  -8  -5    1.50    4.00
  -1   7   5    9.70   19.50
  -1   7   5    4.70    5.80
  -1   7   5    5.20    2.30
  -1   7   5    1.40    2.60
  -1   7   5    2.50    8.30
   1  -7  -5    3.10    7.70
   1  -7  -5    7.10    2.70
   1  -7  -5    3.00    3.70
   1  -7  -5    5.60    6.50
  -1   6   5   18.30   20.60
  -1   6   5   22.00   14.30
  -1   6   5    8.50    2.60
  -1   6   5    6.20    8.70
  -1   6   5    4.70    3.80
   1  -6  -5    9.40    9.80
   1  -6  -5    5.50    8.50
   1  -6  -5    4.10    4.30
  -1   5   5   67.59   12.80
  -1   5   5   77.29   30.80
  -1   5   5  107.39   53.09
  -1   5   5   70.39   28.50
  -1   5   5   74.79   40.20
   1  -5  -5   83.79   46.50
   1  -5  -5   68.49   13.10
   1  -5  -5   77.29   31.10
   1  -5  -5   83.99   44.10
   1  -5  -5   66.19   28.00
  -1   4   5   11.80   10.70
  -1   4   5    6.20    7.20
  -1   4   5    2.80    2.40
  -1   4   5    9.80    6.00
  -1   4   5   52.49   28.50
   1  -4  -5   18.00   13.80
   1  -4  -5    8.80    3.70
   1  -4  -5   29.80   17.40
   1  -4  -5   24.20   15.30
   1  -4  -5   12.50    6.80
  -1   3   5   21.10   19.40
  -1   3   5    7.70    9.40
  -1   3   5   28.50   16.70
   1  -3  -5    7.90    9.10
   1  -3  -5    3.80    2.70
   1  -3  -5   13.30    9.00
   1  -3  -5    2.40    3.60
  -1   2   5   58.19   33.40
  -1   2   5   14.10   13.30
  -1   2   5   27.00    7.60
  -1   2   5   16.70    7.90
  -1   2   5   48.00   26.00
   1  -2  -5   50.49   26.90
   1  -2  -5   19.80    6.00
   1  -2  -5   17.00    8.10
   1  -2  -5   20.90   16.00
  -1   1   5  118.69   60.79
  -1   1   5  139.59   64.19
  -1   1   5  125.19   28.70
  -1   1   5   93.69   36.60
  -1   1   5  202.58  102.99
   1  -1  -5  216.08   92.89
   1  -1  -5  183.78   41.50
   1  -1  -5  330.07  166.98
   1  -1  -5  139.59   69.69
   1  -1  -5   98.19   38.40
  -1   0   5  102.79   54.89
  -1   0   5    8.60   13.00
  -1   0   5   21.10   13.60
  -1   0   5    3.10    3.70
  -1   0   5    4.30    2.90
   1   0  -5   24.80   18.60
   1   0  -5    7.30    5.10
   1   0  -5   16.00   10.70
  -1  -1   5   17.80   20.40
  -1  -1   5  135.39   30.80
  -1  -1   5  184.18   93.99
   1   1  -5  137.49   53.29
   1   1  -5  129.29   30.00
   1   1  -5  141.79   72.59
   1   1  -5  148.09   68.39
  -1  -2   5   33.40   19.60
  -1  -2   5    9.00   15.30
  -1  -2   5   45.00   18.40
   1   2  -5    1.50   13.50
   1   2  -5   12.90   16.20
   1   2  -5   48.70   19.80
   1   2  -5   16.70   11.80
  -1  -3   5   23.30   15.70
  -1  -3   5    0.10   10.10
  -1  -3   5   11.60    7.30
   1   3  -5   22.40   19.30
   1   3  -5    6.30    4.70
   1   3  -5   38.70   22.10
  -1  -4   5   16.30   11.90
  -1  -4   5    9.20   16.40
  -1  -4   5   10.30    5.80
   1   4  -5    9.20   12.10
   1   4  -5   10.60    5.50
   1   4  -5   17.30   11.80
  -1  -5   5   58.09   31.80
  -1  -5   5  102.39   64.09
  -1  -5   5   51.29   20.80
   1   5  -5  108.99   61.29
   1   5  -5   49.30   19.90
   1   5  -5   59.99   32.10
  -1  -6   5    3.70   10.30
  -1  -6   5   11.50   22.80
  -1  -6   5   12.30    6.40
   1   6  -5    8.80   13.70
   1   6  -5   11.90    6.10
   1   6  -5    3.80    8.00
  -1  -7   5   22.60   15.00
  -1  -7   5    9.10   20.80
  -1  -7   5   16.10    7.40
   1   7  -5   14.80    6.60
   1   7  -5    9.60    8.70
  -1  -8   5    2.30    6.50
  -1  -8   5    2.40   18.70
  -1  -8   5    7.80    4.90
   1   8  -5    6.20    4.10
  -1  -9   5   77.09   47.50
  -1  -9   5   70.49   29.40
   1   9  -5   72.49   29.90
  -1 -10   5    7.80   15.50
  -1 -10   5   55.99   24.10
   1  10  -5   44.90   19.40
  -1 -11   5   48.00   34.70
  -1 -11   5   39.30   18.80
   1  11  -5   42.00   28.00
  -1 -12   5    9.50   12.30
   1  12  -5   -0.10    1.10
  -1 -13   5    4.30   10.40
   1  13  -5   -0.10    1.80
  -1  11   6   13.70   10.10
  -1  11   6   14.30    6.70
   1 -11  -6   37.50   12.80
   1 -11  -6   25.90   10.60
  -1  10   6   11.70   10.10
  -1  10   6    6.10    4.10
  -1  10   6    2.60    2.80
   1 -10  -6    4.30    3.50
   1 -10  -6    4.30    3.90
   1 -10  -6    9.10    8.20
  -1   9   6    6.60    4.60
  -1   9   6    2.00    2.10
  -1   9   6    3.60    7.80
  -1   9   6   14.40    6.60
   1  -9  -6    2.00    2.60
   1  -9  -6   19.90   12.20
   1  -9  -6   15.80    7.30
  -1   8   6  235.68  109.19
  -1   8   6  202.28   80.99
  -1   8   6  114.29   23.30
  -1   8   6   95.09   42.60
  -1   8   6   49.40   23.70
   1  -8  -6  260.67  104.59
   1  -8  -6   78.09   34.70
  -1   7   6  121.49   51.19
  -1   7   6   75.69   31.20
  -1   7   6   40.00    8.90
  -1   7   6   32.60   16.00
  -1   7   6   59.89   25.40
   1  -7  -6   91.89   38.10
   1  -7  -6   37.80   17.80
   1  -7  -6   64.09   27.10
  -1   6   6   15.60   14.00
  -1   6   6    4.30    5.80
  -1   6   6    2.00    1.80
  -1   6   6    7.60    5.50
  -1   6   6   23.40   13.00
   1  -6  -6    3.80    2.70
   1  -6  -6   21.40   11.40
   1  -6  -6    2.90    4.90
  -1   5   6  155.68   62.39
  -1   5   6  132.19   56.19
  -1   5   6  194.48   88.49
  -1   5   6   90.29   37.50
   1  -5  -6  170.58   73.19
   1  -5  -6  111.69   23.20
   1  -5  -6  139.79   63.69
   1  -5  -6  136.19   55.09
  -1   4   6  209.18   90.19
  -1   4   6  265.57  107.89
  -1   4   6  214.18   42.70
  -1   4   6  465.55  209.48
  -1   4   6  132.49   53.59
   1  -4  -6  309.07  127.19
   1  -4  -6  370.96  166.68
  -1   3   6   29.10   20.40
  -1   3   6    0.80    7.00
  -1   3   6   17.50   10.50
  -1   3   6    7.30    5.10
   1  -3  -6    2.10    6.50
   1  -3  -6   21.50   16.00
   1  -3  -6   10.10    6.90
   1  -3  -6   13.80    7.40
  -1   2   6   16.40   11.20
  -1   2   6   12.40   14.80
  -1   2   6   40.30   15.70
  -1   2   6   64.69   33.40
   1  -2  -6   21.60   20.70
   1  -2  -6   44.60   24.00
   1  -2  -6   25.20   10.20
   1  -2  -6   32.40   17.70
  -1   1   6   78.99   38.50
  -1   1   6  134.79   74.89
  -1   1   6  247.58  123.49
  -1   1   6  102.69   37.60
   1  -1  -6  312.17  154.58
   1  -1  -6   99.09   23.30
   1  -1  -6   98.29   36.00
   1  -1  -6   87.49   40.90
  -1   0   6   67.89   35.10
  -1   0   6    6.40   15.10
  -1   0   6    1.20    2.10
  -1   0   6   -0.50    2.50
  -1   0   6   10.80    9.50
   1   0  -6    3.10    6.00
   1   0  -6    1.30    1.90
   1   0  -6   49.99   27.90
   1   0  -6    0.80    3.00
  -1  -1   6   13.00   15.50
  -1  -1   6  135.79   74.79
  -1  -1   6  109.49   25.20
  -1  -1   6  102.99   52.79
  -1  -1   6  131.29   48.10
   1   1  -6  108.39   25.10
   1   1  -6  112.79   64.89
   1   1  -6  113.69   57.39
   1   1  -6   18.10   15.90
  -1  -2   6    0.70   11.10
  -1  -2   6   19.30   22.70
  -1  -2   6   26.30   16.30
  -1  -2   6   30.90   12.50
   1   2  -6   11.20   19.40
   1   2  -6   25.20   10.30
  -1  -3   6    7.40   14.80
  -1  -3   6    4.60    7.10
   1   3  -6    2.40   10.40
   1   3  -6   33.70   14.90
   1   3  -6    0.60    5.70
  -1  -4   6  386.96  162.38
  -1  -4   6  281.67  112.49
   1   4  -6  270.17  115.89
   1   4  -6  164.68   65.69
   1   4  -6  167.98   76.29
  -1  -5   6  117.69   54.59
  -1  -5   6  199.68   91.49
  -1  -5   6  124.49   50.19
   1   5  -6  158.78   72.89
   1   5  -6  121.89   49.00
   1   5  -6  103.99   47.70
  -1  -6   6    6.90    7.20
  -1  -6   6   10.00   16.30
  -1  -6   6   18.80    9.00
   1   6  -6    1.50    5.90
   1   6  -6   17.00    8.20
   1   6  -6    7.80    6.40
  -1  -7   6   66.19   30.40
  -1  -7   6  128.39   60.89
  -1  -7   6  102.19   42.20
   1   7  -6  101.19   47.30
   1   7  -6   97.39   40.10
   1   7  -6   51.89   23.50
  -1  -8   6  182.88   79.79
  -1  -8   6  310.17  135.29
  -1  -8   6  356.96  155.48
   1   8  -6  308.87  130.29
   1   8  -6  349.57  151.88
   1   8  -6  171.88   74.19
  -1  -9   6    6.90    7.30
  -1  -9   6   12.20   15.20
  -1  -9   6    6.20    4.00
   1   9  -6    6.70    8.70
   1   9  -6   14.50    6.70
   1   9  -6    4.30    5.80
  -1 -10   6   19.40   17.10
  -1 -10   6   10.40    5.70
   1  10  -6    7.80    8.50
   1  10  -6   17.60    7.80
  -1 -11   6   87.79   38.50
  -1 -11   6  119.09   43.10
   1  11  -6   56.69   24.60
   1  11  -6   95.19   34.50
  -1   7   7    9.10    3.50
  -1   7   7   12.90    9.40
  -1   7   7    7.10    4.30
   1  -7  -7    7.10    7.00
  -1   6   7    3.90    5.80
  -1   6   7    0.70    1.70
  -1   6   7   -0.10    1.90
   1  -6  -7    0.50    2.00
   1  -6  -7   -0.30    2.80
   1  -6  -7    0.30    4.70
  -1   5   7    1.90    6.10
  -1   5   7    3.50    2.70
  -1   5   7    2.10    2.90
   1  -5  -7    0.20    4.50
   1  -5  -7    3.80    4.20
   1  -5  -7   -0.10    4.90
  -1   4   7   80.29   39.10
  -1   4   7   32.70   10.20
  -1   4   7   32.50   13.10
   1  -4  -7   25.70   10.50
   1  -4  -7   23.90   13.30
   1  -4  -7   44.40   22.00
  -1   3   7   43.10   22.20
  -1   3   7    5.20    3.40
  -1   3   7    7.00    4.00
   1  -3  -7    2.50    4.50
   1  -3  -7    4.90    4.20
   1  -3  -7   18.40   10.60
  -1   2   7   13.40    9.30
  -1   2   7    3.20    2.10
  -1   2   7    4.00    3.70
   1  -2  -7    0.10    2.30
   1  -2  -7    3.90    3.90
   1  -2  -7   14.40    8.40
  -1   1   7   10.50   13.80
  -1   1   7    3.40    2.40
  -1   1   7    6.40    6.70
  -1   1   7   21.60   10.90
   1  -1  -7    1.30    4.00
   1  -1  -7    7.70    6.60
   1  -1  -7   12.80    7.40
  -1   0   7   44.60   21.30
  -1   0   7   30.10    7.70
  -1   0   7   27.20   13.60
   1   0  -7   25.60   12.90
   1   0  -7   22.20   16.80
   1   0  -7   57.29   25.80
  -1  -1   7    2.50    6.60
  -1  -1   7    4.20    2.50
  -1  -1   7    5.90    4.80
   1   1  -7    2.40    5.80
   1   1  -7    6.40    5.40
   1   1  -7    3.80    5.50
  -1  -2   7    9.20    7.60
  -1  -2   7    5.10    4.30
   1   2  -7    0.40    3.40
   1   2  -7    5.20    5.90
   1   2  -7    5.70    4.70
  -1  -3   7   17.00   11.50
  -1  -3   7   11.90    6.00
   1   3  -7    0.00    2.00
   1   3  -7    9.90    7.80
  -1  -4   7   16.80   11.60
  -1  -4   7   39.10   15.50
   1   4  -7   24.40   13.70
   1   4  -7   19.70   11.70
   1   4  -7   33.30   13.30
  -1  -5   7   -0.10    4.80
  -1  -5   7   -0.20    1.70
   1   5  -7    0.20    1.80
   1   5  -7    2.10    5.20
  -1  -6   7    2.40    5.00
  -1  -6   7    3.90    3.00
   1   6  -7    0.10    1.40
   1   6  -7    1.20    4.40
   1   6  -7    3.20    2.90
  -1  -7   7    7.50    7.10
  -1  -7   7   12.80    5.80
   1   7  -7    2.10    4.00
   1   7  -7    8.20    6.80
   1   7  -7   15.50    6.70
   2  -5   6    2.80    6.80
   2  -5   6    2.80    2.50
   2  -4   6    2.30    6.20
   2  -4   6    6.20    3.70
   2  -3   6   10.00    8.50
   2  -3   6   38.70   14.70
   2  -2   6   13.40    9.50
   2  -2   6   13.80    6.20
   2  -1   6    0.10    6.10
   2  -1   6    2.30    2.60
   2   0   6   54.69   14.50
   2   0   6   93.49   34.40
   2   1   6    1.20    2.10
   2   1   6   28.70   16.00
   2   1   6    2.50    2.70
   2   2   6   20.80    5.80
   2   2   6   62.59   29.60
   2   2   6   19.20    7.90
   2   3   6   15.30    4.40
   2   3   6  262.17  117.29
   2   3   6    2.70    2.80
   2   4   6    5.30    2.40
   2   4   6    6.20    6.40
   2   4   6   10.90    5.10
   2   5   6    1.30    1.30
   2   5   6    6.30    7.50
   2   5   6    0.90    2.20
  -2   9  -5    5.80    6.30
   2  -9   5    7.20    7.90
   2  -9   5   18.50    7.70
  -2   8  -5   37.30   18.30
   2  -8   5   13.10   10.40
   2  -8   5   31.60   12.20
  -2   7  -5    8.10   10.20
   2  -7   5    3.40    7.40
   2  -7   5    3.80    3.40
   2  -6   5   31.70   16.30
   2  -6   5   59.09   26.40
   2  -5   5   18.70   11.10
   2  -5   5   11.50    5.70
   2  -4   5   11.50    8.80
   2  -4   5   11.30    6.10
   2  -3   5    6.10    7.50
   2  -2   5  164.78   69.69
   2  -2   5  124.59   50.09
   2  -1   5    8.20    8.00
   2  -1   5    6.70    4.80
   2   0   5    6.10    2.20
   2   0   5   13.50   10.50
   2   0   5   -1.40    3.30
  -2  -1  -5    2.70    1.40
  -2  -1  -5    2.60    5.30
   2   1   5    2.50    1.50
   2   1   5    2.20    3.10
   2   1   5   20.40   12.20
  -2  -2  -5   98.99   20.30
   2   2   5  122.29   24.40
   2   2   5   71.89   29.30
   2   2   5  229.68  103.89
  -2  -3  -5   33.70   15.70
  -2  -3  -5    9.00    2.70
   2   3   5    8.20    2.80
   2   3   5   22.10   11.90
   2   3   5   59.09   23.90
  -2  -4  -5   12.30    7.50
   2   4   5   17.60    8.60
   2   4   5    5.70    1.90
   2   4   5    8.30    7.40
   2   4   5    4.90    3.80
   2   5   5    6.80    9.60
   2   5   5    2.30    1.40
   2   5   5    6.70    4.20
   2   5   5    7.20    7.40
   2   6   5    7.20    7.60
   2   6   5   17.60    8.70
   2   7   5    3.50    7.70
   2   7   5    3.20    3.20
   2   8   5   22.30   14.30
   2   8   5    6.50    3.60
   2   9   5    2.00    6.30
   2   9   5    2.00    2.40
  -2  12  -4   12.80    9.30
   2 -12   4   14.60   13.70
  -2  11  -4    5.10    6.20
   2 -11   4    2.60    8.60
  -2  10  -4  224.38   96.09
   2 -10   4  147.39   64.59
  -2   9  -4  269.37  105.89
   2  -9   4  270.77  109.29
   2  -8   4   11.50    6.40
   2  -7   4   19.60   12.30
  -2   6  -4  156.68   78.29
  -2   6  -4  470.35  168.08
   2  -6   4  207.68  104.39
   2  -6   4  408.36  145.99
  -2   5  -4  220.48  109.69
  -2   5  -4  260.07   93.19
   2  -5   4  219.78  109.89
   2  -5   4  272.07   97.39
  -2   4  -4  245.78  123.89
  -2   4  -4  150.08   58.39
   2  -4   4  129.99   50.69
  -2   3  -4   25.70   15.50
  -2   3  -4   77.89   30.80
  -2   2  -4  121.89   62.19
  -2   2  -4  210.18   81.89
  -2   1  -4  398.86  200.28
  -2   0  -4 1114.59  557.34
  -2   0  -4  564.64  218.18
   2   0   4  620.24  107.59
  -2  -1  -4  123.69   41.20
  -2  -1  -4  245.98   43.20
  -2  -1  -4  154.58   60.29
  -2  -1  -4  328.47  164.88
   2   1   4  232.78   40.70
  -2  -2  -4  182.68   60.19
  -2  -2  -4  137.69   24.50
  -2  -2  -4  346.77  174.08
  -2  -2  -4  107.89   42.40
   2   2   4  138.39   24.40
   2   2   4  135.79   44.90
   2   2   4  295.27  148.89
   2   2   4  112.89   44.30
  -2  -3  -4   69.49   36.10
  -2  -3  -4   36.60   18.20
  -2  -3  -4    8.60    5.30
   2   3   4   48.50   21.80
   2   3   4    6.90    4.50
   2   3   4   43.30   24.80
  -2  -4  -4  233.38  117.79
  -2  -4  -4   71.69   12.80
  -2  -4  -4  110.59   43.60
   2   4   4  158.18   61.69
   2   4   4  150.88   77.39
  -2  -5  -4  163.18   58.79
  -2  -6  -4  263.37  130.59
  -2  -6  -4  140.69   50.89
   2   6   4  332.07  165.18
   2   6   4  121.59   43.90
  -2  -7  -4   -1.20    5.80
  -2  -7  -4    1.60    3.90
   2   7   4    0.40    6.60
   2   7   4   -0.30    2.60
  -2  -8  -4   12.30    8.30
  -2  -8  -4    0.90    3.90
   2   8   4    8.30    5.30
   2   9   4   32.90   14.40
   2  10   4   11.20    6.30
   2  12   4    2.00    2.30
  -2  14  -3    1.20   36.90
  -2  13  -3    2.80    5.50
   2 -13   3    6.60    9.60
  -2  12  -3    0.20    6.40
  -2  11  -3   11.70   12.30
  -2   7  -3   11.80    6.20
   2  -7   3   20.50    9.30
  -2   6  -3  197.68   76.29
  -2   5  -3   18.80   12.10
  -2   5  -3   70.69   27.70
   2  -5   3   23.20   15.90
   2  -5   3   42.20   17.00
  -2   4  -3   10.70    8.70
  -2   4  -3    2.60    2.70
   2  -4   3   25.50   15.40
   2  -4   3    4.40    3.00
  -2   3  -3   95.39   45.30
  -2   3  -3   59.09   20.80
   2  -3   3   67.69   33.20
   2  -3   3   48.20   17.00
  -2   2  -3  171.48   80.29
  -2   2  -3  392.06  134.39
   2  -2   3  311.47  145.39
   2  -2   3  384.76  131.79
  -2   1  -3   30.40   15.90
  -2   1  -3   22.60    8.80
   2  -1   3   42.90   21.90
  -2   0  -3   34.00   17.50
  -2   0  -3    1.00    3.50
   2   0   3   25.90   14.60
   2   0   3    0.50    2.90
  -2  -1  -3   30.70    7.20
  -2  -1  -3   86.09   40.70
   2   1   3   24.30    5.80
   2   1   3   21.00    8.20
   2   1   3   48.90   24.30
  -2  -2  -3  205.18   76.39
  -2  -2  -3  175.68   38.60
  -2  -2  -3  365.86  170.18
  -2  -2  -3  243.88   83.79
   2   2   3  150.58   32.90
   2   2   3  256.67   95.29
   2   2   3  343.87  160.28
   2   2   3  186.88   64.29
  -2  -3  -3  100.99   47.80
  -2  -3  -3   65.29   23.10
   2   3   3   50.79   25.70
   2   3   3   95.39   33.20
  -2  -4  -3    3.70    6.30
  -2  -4  -3    2.10    3.40
  -2  -5  -3   18.50   12.40
  -2  -5  -3   17.60    8.20
   2   5   3    4.50    9.20
  -2  -6  -3  138.49   70.79
  -2  -6  -3   49.60   19.80
   2   6   3   37.20   15.10
   2   7   3    6.30    4.20
  -2  -8  -3    7.00    4.50
   2   8   3    1.80    2.50
   2   9   3    3.20    2.70
  -2  15  -2   12.20    9.50
  -2  14  -2    3.80    8.00
  -2  13  -2   26.50   18.80
  -2   5  -2  298.67   98.79
   2  -5   2  316.67  104.59
  -2   4  -2 1053.29  347.07
   2  -4   2  549.65  245.98
   2  -4   2 1061.29  349.57
  -2   3  -2  242.58  106.29
  -2   3  -2  386.06  145.59
   2  -3   2  336.17  146.89
   2  -3   2  371.66  140.09
  -2   2  -2  256.27  112.09
  -2   2  -2  209.98   79.39
   2  -2   2  171.68   75.39
   2  -2   2  158.68   60.09
  -2   1  -2   44.80   20.50
   2  -1   2   38.20   18.30
  -2   0  -2 1271.17  553.44
  -2   0  -2 1087.79  409.36
   2   0   2 1368.96  596.34
   2   0   2 1165.08  438.16
  -2  -1  -2   28.60    5.70
  -2  -1  -2   88.69   39.20
   2   1   2   62.59   28.10
  -2  -2  -2  211.08   79.89
   2   2   2  256.27   96.79
  -2  -3  -2  394.36  172.08
  -2  -3  -2  219.28   82.99
   2   3   2  568.54  248.08
   2   3   2  264.97   99.99
  -2  -4  -2  433.06  142.89
   2   4   2  357.86  118.09
  -2  -5  -2   72.49   24.30
   2   5   2   60.59   20.40
  -2  -6  -2  139.69   48.20
  -2  16  -1    3.60    6.30
  -2  15  -1   12.10    9.60
  -2  14  -1   35.00   20.60
   2  -3   1 1392.96  477.15
  -2   2  -1  103.09   49.99
  -2   2  -1  169.18   58.19
   2  -2   1  101.39   49.30
   2  -2   1  197.28   67.79
  -2   1  -1 1127.69  538.75
  -2   1  -1 1087.79  372.56
   2  -1   1 1151.38  549.95
   2  -1   1 1104.09  378.06
  -2   0  -1   42.90   21.10
  -2   0  -1   69.59   23.00
  -2   0  -1    1.90    2.40
   2   0   1    6.40    2.90
   2   0   1   30.10   15.20
  -2  -1  -1  538.75  257.57
  -2  -1  -1  740.13  219.68
  -2  -1  -1  655.73  224.68
   2   1   1  733.03  217.58
   2   1   1  686.13  235.08
   2   1   1  342.57  164.08
  -2  -2  -1   51.39   18.00
   2   2   1   58.09   20.20
  -2  -3  -1  413.56  141.79
   2   3   1  428.86  146.99
  -2 -12  -1    3.60    7.10
  -2 -13  -1    0.00    3.80
   2  13   1    1.90    5.50
   2  14   1    4.40    5.20
  -2  16   0   48.30   21.20
  -2   1   0   70.19   15.40
  -2   1   0   77.19   36.50
   2  -1   0   76.99   35.60
  -2   0   0  531.75  113.69
  -2   0   0  461.75  178.48
   2   0   0  598.24  127.79
   2   0   0  410.36  163.38
   2   0   0  457.25  176.78
  -2  -1   0  113.29   46.40
   2   1   0  113.29   46.70
   2   2   0  521.55  155.68
  -2  -9   0  131.49   55.79
  -2 -10   0  244.78  104.89
   2  10   0  190.58   78.19
  -2 -11   0    1.50    9.80
   2  11   0    6.90   11.30
   2  13   0   75.39   36.60
   2  14   0    3.00    6.40
   2  15   0   25.60   17.20
   2  16   0   13.20   10.60
  -2   3   1  113.39   21.80
  -2   3   1   57.99   29.40
   2  -3  -1   34.80   22.40
  -2   2   1  779.72  302.07
  -2   2   1  814.22  173.98
  -2   2   1  686.43  273.17
  -2   2   1  366.56  166.28
   2  -2  -1  999.30  213.38
   2  -2  -1  878.11  340.67
  -2   1   1  200.78   79.99
  -2   1   1  109.39   24.10
  -2   1   1  145.79   58.29
  -2   1   1  306.27  138.89
   2  -1  -1  147.89   32.30
   2  -1  -1  191.78   76.99
  -2   0   1  107.09   44.40
  -2   0   1    0.70    2.20
  -2   0   1   10.40    4.90
  -2   0   1    3.90    4.80
   2   0  -1    0.40    2.10
   2   0  -1   89.89   38.00
  -2  -1   1  253.37  100.59
  -2  -1   1  217.58   86.79
   2   1  -1  213.88   85.29
  -2  -2   1  182.58   74.19
   2   2  -1  136.99   57.09
  -2  -6   1  443.86  171.78
   2   6  -1  597.94  225.68
  -2  -7   1   82.19   41.50
   2   7  -1  141.39   58.59
  -2  -8   1    3.70   12.60
   2   8  -1   86.79   41.00
  -2  -9   1   69.99   36.20
   2   9  -1  169.08   68.09
  -2 -10   1   30.80   23.50
   2  10  -1   98.59   46.10
  -2 -11   1   -3.40    8.70
   2  11  -1   69.39   35.40
  -2 -12   1    6.60   15.00
   2  12  -1   24.90   24.90
   2  13  -1   60.29   39.50
   2  14  -1    4.90    9.00
   2  15  -1    3.90    7.90
   2  16  -1    3.40    5.40
  -2   5   2   52.39   11.00
  -2   5   2   23.30    9.90
   2  -5  -2   53.79   11.10
   2  -5  -2   41.60   16.30
  -2   4   2   38.70   19.90
  -2   4   2   10.60    2.90
  -2   4   2   16.50    7.00
  -2   4   2    7.30   21.90
   2  -4  -2   10.60    2.90
   2  -4  -2    8.50   16.20
   2  -4  -2   19.40    7.50
   2  -4  -2   15.60   10.40
  -2   3   2 1728.83  514.45
  -2   3   2 1885.11  354.76
  -2   3   2 1390.06  664.33
  -2   3   2 1435.76  491.85
   2  -3  -2 2042.60  384.46
   2  -3  -2 2069.79  616.44
   2  -3  -2 1215.58  580.94
   2  -3  -2 1506.05  515.75
  -2   2   2 1283.07  382.16
  -2   2   2 1143.39  215.58
  -2   2   2 1889.21  902.41
   2  -2  -2 1243.38  234.38
   2  -2  -2 1838.12  878.11
   2  -2  -2 1374.76  409.06
  -2   1   2  861.51  257.17
  -2   1   2  644.84  122.09
  -2   1   2  824.42  394.06
  -2   1   2  603.04  206.68
   2  -1  -2  721.53  215.68
   2  -1  -2 1251.37  597.94
   2  -1  -2  617.44  211.58
  -2   0   2  198.28   62.19
  -2   0   2  186.08   36.00
  -2   0   2  164.08   79.09
  -2   0   2  207.58   71.49
   2   0  -2  109.59   53.29
   2   0  -2  175.78   34.10
   2   0  -2  203.48   70.19
   2   0  -2  192.08   59.89
  -2  -1   2  564.34  169.68
  -2  -1   2  809.72  153.18
  -2  -1   2  538.15  257.47
  -2  -1   2  638.14  218.78
   2   1  -2  559.54  267.87
   2   1  -2  491.85  148.29
   2   1  -2  480.25  164.78
  -2  -2   2  961.90  459.85
  -2  -2   2  166.38   53.29
  -2  -2   2 1602.64  548.65
   2   2  -2  861.51  411.96
   2   2  -2 1472.85  504.25
  -2  -3   2 3738.83 1393.26
  -2  -3   2 2765.42  946.91
   2   3  -2 2595.14  967.30
   2   3  -2 2438.56  835.02
  -2  -4   2    0.90   12.50
   2   4  -2   42.70   25.20
  -2  -5   2   42.30   28.10
   2   5  -2  126.89   54.89
  -2  -8   2    7.20   16.40
   2   8  -2   90.99   46.30
  -2  -9   2  244.98   99.89
   2   9  -2  356.26  137.69
  -2 -10   2 1061.89  421.16
   2  10  -2 1359.36  532.75
  -2 -11   2   49.00   36.30
   2  11  -2   27.70   22.30
  -2 -12   2  107.59   61.79
   2  12  -2   70.89   41.20
  -2 -13   2   60.99   36.50
   2  13  -2   89.29   43.00
   2  14  -2   87.99   39.60
   2  15  -2   10.00   11.10
   2  16  -2   -0.50    4.80
  -2   8   3    5.00    3.60
   2  -8  -3   10.50    5.30
  -2   7   3    3.60    3.50
   2  -7  -3    4.30    3.50
  -2   6   3   26.60    6.30
  -2   6   3   86.29   46.20
  -2   6   3   28.60   10.40
   2  -6  -3   21.90    5.30
   2  -6  -3   37.20   13.10
   2  -6  -3   69.69   32.50
  -2   5   3  129.19   25.60
  -2   5   3  145.79   67.49
  -2   5   3  118.69   45.40
   2  -5  -3  132.39   26.30
   2  -5  -3  110.39   42.40
   2  -5  -3  280.67  126.09
  -2   4   3   89.59   42.00
  -2   4   3   26.10   13.40
   2  -4  -3  127.29   57.09
   2  -4  -3   22.30    9.80
   2  -4  -3   20.40   11.50
  -2   3   3   27.10    6.40
  -2   3   3   53.79   25.10
  -2   3   3   35.30   20.80
   2  -3  -3   36.30    8.30
   2  -3  -3   32.60   18.60
   2  -3  -3  192.38   72.99
   2  -3  -3   49.20   23.60
  -2   2   3  348.37  134.19
  -2   2   3  198.08   39.20
  -2   2   3  437.46  190.98
   2  -2  -3  201.98   40.00
   2  -2  -3  317.27  138.79
   2  -2  -3  273.87  105.09
  -2   1   3  241.08   93.29
  -2   1   3  244.18   96.49
  -2   1   3  192.38   37.10
  -2   1   3  151.98   52.59
  -2   1   3  339.37  162.68
   2  -1  -3  195.28   37.70
   2  -1  -3  404.86  194.18
   2  -1  -3  151.08   52.19
  -2   0   3   33.90   20.50
  -2   0   3    4.10   11.80
  -2   0   3   -1.10    1.90
  -2   0   3   -1.40    3.40
  -2   0   3    3.50    7.50
   2   0  -3    5.70    8.90
   2   0  -3    1.00    1.90
   2   0  -3   11.20    8.70
   2   0  -3   19.90   15.40
   2   0  -3    1.20    3.00
  -2  -1   3  112.29   47.60
  -2  -1   3  116.09   52.49
  -2  -1   3  206.38   39.80
  -2  -1   3  228.68   78.89
  -2  -1   3  154.98   74.99
   2   1  -3  133.19   58.59
   2   1  -3  172.98   33.50
   2   1  -3  165.08   79.89
   2   1  -3  108.29   46.10
   2   1  -3  219.98   75.89
  -2  -2   3  254.27  103.39
   2   2  -3  370.06  143.99
   2   2  -3    4.90   15.20
   2   2  -3   87.99   33.70
   2   2  -3  179.98   79.29
  -2  -3   3   16.80   18.30
   2   3  -3   24.20   13.20
   2   3  -3   28.30   11.50
  -2  -4   3   30.20   15.30
  -2  -4   3    4.50   15.90
  -2  -4   3   47.30   19.10
   2   4  -3   22.50   20.00
   2   4  -3   49.90   19.60
   2   4  -3   19.30   10.70
  -2  -5   3  179.08   81.19
  -2  -5   3  307.27  116.59
   2   5  -3  233.78   98.39
   2   5  -3  291.67  110.39
  -2  -6   3   96.09   49.90
  -2  -6   3  125.69   42.10
   2   6  -3  129.19   57.49
   2   6  -3  127.29   42.50
  -2  -7   3   16.30   18.80
   2   7  -3   12.10   13.30
  -2  -8   3   25.60   22.30
   2   8  -3   20.30   16.50
  -2  -9   3  236.28  104.19
   2   9  -3  199.38   85.69
  -2 -10   3    5.90   16.60
   2  10  -3   33.50   26.50
   2  11  -3   33.90   27.40
  -2 -12   3    5.10   13.40
   2  12  -3   27.10   23.20
  -2 -13   3   25.50   21.60
  -2 -14   3   -2.20    8.50
   2  14  -3    6.60   10.60
   2  15  -3    4.00    7.20
   2  16  -3    3.50    6.80
  -2  11   4    1.50    3.50
  -2   8   4   41.50   17.20
   2  -8  -4   79.49   42.10
   2  -8  -4   73.69   29.20
  -2   7   4  297.57  148.09
  -2   7   4   95.89   21.90
  -2   7   4    9.30    9.60
  -2   7   4   89.59   35.10
   2  -7  -4  250.27  123.99
   2  -7  -4   48.90   27.50
   2  -7  -4  126.09   49.00
  -2   6   4  475.55  226.48
  -2   6   4  200.68   44.40
  -2   6   4  163.08   76.89
  -2   6   4  168.08   57.99
   2  -6  -4  244.38   53.99
   2  -6  -4  371.66  180.18
   2  -6  -4  183.98   86.69
   2  -6  -4  230.98   79.39
  -2   5   4  157.68   66.09
  -2   5   4   78.69   38.10
   2  -5  -4  147.49   63.49
   2  -5  -4  126.59   44.10
   2  -5  -4   86.49   42.10
  -2   4   4  498.85  187.68
  -2   4   4  505.85  185.58
  -2   4   4  544.85  109.09
  -2   4   4  268.67   89.09
  -2   4   4 1056.19  472.35
   2  -4  -4  692.53  310.07
   2  -4  -4  490.85   98.29
   2  -4  -4  433.96  163.68
   2  -4  -4  278.17   92.29
  -2   3   4 1021.60  395.96
  -2   3   4  481.55  187.08
  -2   3   4  686.43  136.89
  -2   3   4  683.53  225.58
  -2   3   4 1482.75  662.43
   2  -3  -4 1133.79  431.06
   2  -3  -4  715.13  142.79
   2  -3  -4 1447.26  646.84
   2  -3  -4  858.31  332.67
   2  -3  -4  605.84  199.98
  -2   2   4  380.26   76.49
  -2   2   4  577.14  225.78
  -2   2   4  602.34  269.57
  -2   2   4  419.56  138.59
   2  -2  -4  291.17  117.69
   2  -2  -4  408.06   82.19
   2  -2  -4  358.56  118.49
   2  -2  -4  466.55  208.98
   2  -2  -4  481.85  188.78
  -2   1   4   97.89   20.80
  -2   1   4  103.79   45.60
  -2   1   4  139.29   63.19
  -2   1   4   79.19   26.70
   2  -1  -4  155.98   67.59
   2  -1  -4   95.69   20.40
   2  -1  -4   81.29   27.40
   2  -1  -4  245.28  110.39
   2  -1  -4   80.49   36.20
  -2   0   4   34.10   23.20
  -2   0   4    2.20   11.50
  -2   0   4    4.50    3.00
  -2   0   4    9.00    4.90
  -2   0   4   24.60   13.20
   2   0  -4   26.10   19.70
   2   0  -4    5.40    3.10
   2   0  -4   23.40   13.10
   2   0  -4   34.80   21.70
   2   0  -4   10.60    5.10
  -2  -1   4  162.48   69.39
  -2  -1   4   67.79   37.60
  -2  -1   4   96.59   20.40
  -2  -1   4  134.49   45.10
  -2  -1   4  133.19   60.59
   2   1  -4   90.89   19.40
   2   1  -4  170.68   71.09
   2   1  -4  105.59   35.50
  -2  -2   4  297.37  133.79
  -2  -2   4  544.55  217.18
  -2  -2   4  556.34  183.78
   2   2  -4  577.44  225.18
   2   2  -4  277.47  111.19
   2   2  -4  488.25  161.38
   2   2  -4  315.17  141.89
  -2  -3   4  151.48   65.19
  -2  -3   4 1943.21  737.53
  -2  -3   4  651.23  291.57
  -2  -3   4  577.44  190.48
   2   3  -4 1503.55  570.14
   2   3  -4  142.39   59.49
   2   3  -4  661.13  295.97
   2   3  -4  527.95  174.08
  -2  -4   4  463.65  208.08
  -2  -4   4 1045.90  386.36
  -2  -4   4  522.15  172.48
   2   4  -4  900.21  331.37
   2   4  -4  402.96  133.09
   2   4  -4  291.87  131.69
  -2  -5   4  113.09   54.09
  -2  -5   4  320.57  127.19
  -2  -5   4  269.07   92.59
   2   5  -4  240.38   94.89
   2   5  -4  236.18   81.29
   2   5  -4  117.29   56.09
  -2  -6   4  585.14  200.18
   2   6  -4  586.04  200.48
  -2  -7   4  116.29   63.69
   2   7  -4  369.06  155.18
   2   7  -4  357.26  136.99
  -2  -8   4  102.59   65.19
  -2  -8   4  185.08   71.69
   2   8  -4  154.58   59.89
  -2  -9   4  327.57  165.78
   2   9  -4  490.25  234.38
  -2 -10   4  330.47  166.38
   2  10  -4  445.46  213.68
  -2 -11   4   28.10   26.80
   2  11  -4   54.49   32.70
  -2 -12   4  116.99   56.89
   2  12  -4  163.48   69.19
  -2 -13   4   53.09   35.90
   2  13  -4  166.48   73.89
  -2 -14   4   -0.30    8.50
   2  14  -4    8.70    8.70
   2  15  -4   10.70    9.10
  -2  12   5    7.60    4.40
  -2  11   5    7.50    5.30
  -2  10   5    2.30    3.40
   2 -10  -5    1.30    1.50
   2 -10  -5   -0.60    5.90
   2 -10  -5    6.80    5.30
  -2   9   5    1.30    6.60
  -2   9   5    2.60    2.00
  -2   9   5    3.40    3.80
  -2   9   5   -5.60   15.10
   2  -9  -5    1.20    1.70
   2  -9  -5    0.90    4.20
   2  -9  -5    3.10    6.60
  -2   8   5  140.59   76.19
  -2   8   5   68.39   34.80
  -2   8   5  148.09   74.79
  -2   8   5   64.59   24.40
   2  -8  -5   92.79   47.40
   2  -8  -5   56.69   13.30
   2  -8  -5   67.39   25.10
   2  -8  -5   74.19   43.10
  -2   7   5   86.19   50.69
  -2   7   5   58.19   30.60
  -2   7   5   48.00   11.50
  -2   7   5   30.30   12.00
  -2   7   5   29.80   18.10
   2  -7  -5  138.39   68.79
   2  -7  -5   56.39   13.50
   2  -7  -5   28.70   17.20
   2  -7  -5   58.19   40.70
   2  -7  -5   49.60   18.90
  -2   6   5   22.50   14.90
  -2   6   5   13.60   10.90
  -2   6   5   10.40    5.80
   2  -6  -5    9.20    9.70
   2  -6  -5   27.00   25.40
   2  -6  -5   12.70    7.00
   2  -6  -5   35.90   21.10
  -2   5   5   11.70    3.60
  -2   5   5  884.91  443.26
  -2   5   5   46.40   19.40
   2  -5  -5  467.55  234.78
   2  -5  -5    4.40    7.80
   2  -5  -5   35.30   18.40
  -2   4   5  274.17  138.99
  -2   4   5    7.20    9.30
  -2   4   5  136.39   53.29
   2  -4  -5  195.18   67.69
   2  -4  -5  131.09   51.09
   2  -4  -5  212.08  107.89
  -2   3   5   73.09   35.70
  -2   3   5   97.19   22.90
  -2   3   5  202.28  102.79
  -2   3   5  112.19   44.00
   2  -3  -5   94.59   22.20
   2  -3  -5   51.79   30.40
   2  -3  -5  276.97  140.29
   2  -3  -5  107.49   42.00
  -2   2   5   95.29   45.50
  -2   2   5   70.39   37.00
   2  -2  -5   42.60   26.00
   2  -2  -5   70.49   17.10
   2  -2  -5   93.29   48.30
   2  -2  -5  155.88   78.29
  -2   1   5  160.88   82.69
  -2   1   5   78.89   38.70
  -2   1   5   70.99   28.00
  -2   1   5   76.29   18.30
   2  -1  -5   80.39   41.30
   2  -1  -5   64.69   25.70
   2  -1  -5  139.99   71.69
   2  -1  -5  146.09   72.39
  -2   0   5  119.89   55.29
  -2   0   5    0.60    2.20
  -2   0   5    6.20    8.20
  -2   0   5   -0.90    3.10
   2   0  -5    0.30    6.20
   2   0  -5    0.60    2.00
   2   0  -5   89.29   44.20
   2   0  -5   43.00   30.20
   2   0  -5   -0.50    3.50
  -2  -1   5   44.40   32.30
  -2  -1   5   82.79   42.20
  -2  -1   5   65.39   15.90
  -2  -1   5   70.49   28.20
  -2  -1   5   96.39   50.19
   2   1  -5   55.79   13.80
   2   1  -5   84.89   33.40
   2   1  -5  111.99   57.99
   2   1  -5   62.09   38.40
  -2  -2   5   17.90   21.60
  -2  -2   5   60.19   32.30
  -2  -2   5  178.38   69.09
   2   2  -5   92.69   46.60
   2   2  -5   39.00   22.20
   2   2  -5   45.20   30.50
  -2  -3   5  108.49   56.69
  -2  -3   5   19.80   22.00
  -2  -3   5  149.09   57.99
   2   3  -5  156.58   74.19
   2   3  -5   17.60   19.60
   2   3  -5   91.59   35.80
   2   3  -5   84.39   44.10
  -2  -4   5  122.79   63.39
  -2  -4   5  162.38   77.79
  -2  -4   5  124.39   48.30
   2   4  -5  141.99   72.89
   2   4  -5  111.49   43.30
  -2  -5   5   14.60   21.60
  -2  -5   5   20.10   14.50
  -2  -5   5  331.67  128.59
   2   5  -5   14.70   17.60
   2   5  -5   16.10   12.40
  -2  -6   5   31.00   19.50
  -2  -6   5   37.70   34.80
  -2  -6   5   17.10    8.20
   2   6  -5   98.29   57.29
   2   6  -5   21.40    9.70
   2   6  -5   27.70   17.10
  -2  -7   5   85.49   44.30
  -2  -7   5  339.07  168.68
   2   7  -5  544.55  255.67
   2   7  -5  135.49   49.20
   2   7  -5   80.39   41.40
  -2  -8   5  231.18  124.19
  -2  -8   5  187.18   67.79
   2   8  -5  262.47  130.69
   2   8  -5  178.18   64.39
  -2  -9   5    7.70   17.00
   2   9  -5   15.50   14.80
   2   9  -5   17.40    8.80
  -2 -10   5    4.10   13.40
  -2 -10   5   28.20   13.30
   2  10  -5   43.50   24.30
   2  10  -5   13.50    7.30
  -2 -11   5   46.70   21.90
   2  11  -5   22.00   17.30
  -2 -12   5   28.00   20.70
   2  12  -5   58.69   26.30
  -2 -13   5    1.70    8.70
   2  13  -5    2.80    4.80
  -2  11   6    7.70    4.00
  -2  11   6    1.10    6.20
  -2  11   6    4.40    3.30
  -2  10   6    8.10    4.50
  -2  10   6    6.70    3.30
  -2  10   6    4.70    3.50
  -2  10   6   19.10   12.90
   2 -10  -6   18.00    8.20
  -2   9   6   16.40   10.00
  -2   9   6   29.30    6.90
  -2   9   6   31.20   15.20
  -2   9   6   34.30   17.70
   2  -9  -6   30.50    7.20
   2  -9  -6   12.30    8.40
  -2   8   6    1.00    3.10
  -2   8   6    1.80    1.60
  -2   8   6    0.80    2.90
  -2   8   6    4.20    6.80
   2  -8  -6    3.20    2.30
   2  -8  -6    2.90    6.60
   2  -8  -6    0.20   11.20
  -2   7   6   13.00    8.40
  -2   7   6   14.50    4.40
  -2   7   6   19.00   10.60
  -2   7   6   11.60    6.60
   2  -7  -6   14.50    9.20
   2  -7  -6   17.50    5.10
   2  -7  -6   16.90    9.00
   2  -7  -6    2.90    4.60
  -2   6   6   45.00   23.00
  -2   6   6   25.30   14.00
  -2   6   6   26.70    6.90
  -2   6   6   11.40    7.00
  -2   6   6  186.38   84.89
   2  -6  -6   35.50    8.70
   2  -6  -6  173.38   78.69
   2  -6  -6    3.60    6.60
  -2   5   6    5.20   10.60
  -2   5   6   14.20   10.50
  -2   5   6    4.90    2.60
  -2   5   6    5.10    4.80
  -2   5   6    9.30    7.50
   2  -5  -6    4.70    2.70
   2  -5  -6    2.80    5.80
   2  -5  -6    7.80    6.80
   2  -5  -6    5.10    5.10
  -2   4   6  104.89   50.99
  -2   4   6  141.59   60.09
  -2   4   6   66.99   14.70
  -2   4   6   72.79   30.50
  -2   4   6  112.29   51.69
   2  -4  -6   65.89   14.40
   2  -4  -6  120.99   55.19
   2  -4  -6  139.79   62.09
  -2   3   6  231.58   52.19
  -2   3   6  363.66  152.08
  -2   3   6   98.09   53.99
  -2   3   6  197.78   71.49
  -2   3   6  476.15  235.58
   2  -3  -6  374.86  176.98
   2  -3  -6  230.68   51.99
   2  -3  -6  160.98   58.29
   2  -3  -6  442.26  218.38
   2  -3  -6  288.87  120.89
  -2   2   6   55.29   29.40
  -2   2   6    8.20   14.60
  -2   2   6   11.80    4.50
  -2   2   6   59.59   31.70
   2  -2  -6   16.00    7.10
   2  -2  -6   22.30    6.70
   2  -2  -6   38.30   27.50
   2  -2  -6   72.69   37.40
   2  -2  -6   74.49   36.30
  -2   1   6  188.08   83.49
  -2   1   6   97.39   55.39
  -2   1   6  270.37  135.09
  -2   1   6   93.59   34.40
   2  -1  -6   79.69   49.99
   2  -1  -6  100.59   23.70
   2  -1  -6  281.97  139.99
   2  -1  -6   81.59   30.10
   2  -1  -6  164.88   74.09
  -2   0   6  156.58   32.40
  -2   0   6  188.18   84.69
  -2   0   6   77.69   35.90
  -2   0   6  193.98   70.19
  -2   0   6  359.86  178.48
   2   0  -6   86.39   41.30
   2   0  -6  150.58   31.00
   2   0  -6  205.18   73.99
   2   0  -6  298.17  147.89
   2   0  -6  165.38   73.89
  -2  -1   6   51.19   30.70
  -2  -1   6  144.29   77.29
  -2  -1   6  108.09   25.30
  -2  -1   6  142.09   51.89
  -2  -1   6  185.68   93.19
   2   1  -6   80.49   19.10
   2   1  -6  113.59   41.50
   2   1  -6  131.49   66.29
   2   1  -6   54.29   32.30
  -2  -2   6   92.29   54.59
  -2  -2   6   24.20   10.20
   2   2  -6   23.20    9.70
   2   2  -6   29.30   27.30
   2   2  -6   20.80   13.70
   2   2  -6  111.49   51.89
  -2  -3   6    9.00   16.40
  -2  -3   6  236.48  121.89
  -2  -3   6  164.38   82.89
  -2  -3   6  369.06  132.69
   2   3  -6  226.58  112.89
   2   3  -6  303.27  148.59
   2   3  -6  361.76  129.79
   2   3  -6    1.70   12.70
  -2  -4   6   51.39   25.10
  -2  -4   6   49.00   33.40
  -2  -4   6   69.79   29.00
   2   4  -6  107.89   51.19
   2   4  -6   51.59   21.40
   2   4  -6   61.59   29.10
  -2  -5   6    9.90    7.80
  -2  -5   6    3.00   11.40
  -2  -5   6   32.40   14.20
   2   5  -6   18.00   15.10
   2   5  -6   30.10   13.10
   2   5  -6    6.00    6.00
  -2  -6   6   31.30   16.80
  -2  -6   6   82.59   33.90
   2   6  -6   47.10   27.60
   2   6  -6   22.20   12.50
  -2  -7   6   13.90    9.90
  -2  -7   6   30.50   25.50
  -2  -7   6   73.29   30.80
   2   7  -6   31.70   20.40
   2   7  -6   64.69   27.10
   2   7  -6   11.40    7.70
  -2  -8   6    0.90   10.50
  -2  -8   6    7.60    7.80
  -2  -8   6   33.70   16.20
   2   8  -6    3.70    7.20
   2   8  -6    2.40    5.50
  -2  -9   6   31.40   16.20
  -2  -9   6   68.49   43.10
  -2  -9   6  133.09   59.09
   2   9  -6  100.19   50.59
   2   9  -6  136.19   60.09
  -2 -10   6    2.20    9.90
  -2 -10   6   20.90    9.30
  -2 -11   6    8.80   11.90
   2  11  -6   13.00   11.30
  -2   8   7    2.50    5.50
  -2   8   7    3.40    3.00
  -2   7   7    8.70    3.70
  -2   7   7   17.70   11.30
  -2   7   7    4.10    3.50
   2  -7  -7    6.20    5.00
  -2   6   7   41.20   12.40
  -2   6   7  138.69   65.89
  -2   6   7   69.79   26.50
   2  -6  -7  125.99   43.20
  -2   5   7    4.70    3.00
  -2   5   7   25.40   14.80
  -2   5   7    5.10    3.70
   2  -5  -7    8.60    7.00
  -2   4   7   22.50   12.10
  -2   4   7    6.30    2.90
  -2   4   7   11.20    6.80
   2  -4  -7   11.20    6.80
   2  -4  -7   21.30   11.00
  -2   3   7   28.40   14.50
  -2   3   7    0.90    1.80
  -2   3   7    2.70    3.20
   2  -3  -7    4.10    6.90
   2  -3  -7    2.30    4.20
   2  -3  -7   22.30   11.70
  -2   2   7   97.49   43.10
  -2   2   7  142.29   63.19
  -2   2   7   82.79   37.10
  -2   2   7  128.39   27.00
   2  -2  -7  121.39   55.79
   2  -2  -7   86.89   38.70
   2  -2  -7  198.58   85.19
  -2   1   7   16.70   11.10
  -2   1   7    9.00   11.10
  -2   1   7   36.10   17.20
   2  -1  -7    2.10    5.20
   2  -1  -7   34.30   16.60
   2  -1  -7   21.50   11.40
  -2   0   7    1.10    5.10
  -2   0   7   56.19   27.60
  -2   0   7   -0.40    2.40
  -2   0   7    0.90    1.90
   2   0  -7    1.00    4.10
   2   0  -7   -0.80    3.30
   2   0  -7    1.30    4.60
  -2  -1   7   67.09   32.20
  -2  -1   7    7.50    3.20
  -2  -1   7    9.60    6.40
  -2  -1   7    6.40    7.00
   2   1  -7    5.00    6.00
  -2  -2   7  156.98   68.39
  -2  -2   7    0.10    0.30
  -2  -2   7  133.59   59.29
   2   2  -7  111.39   49.50
   2   2  -7  158.78   71.59
  -2  -3   7    2.40    6.30
  -2  -3   7   34.40   16.70
   2   3  -7    0.50    4.50
   2   3  -7    4.60    6.00
   2   3  -7   26.60   13.50
  -2  -4   7    3.20    6.60
  -2  -4   7   34.70   17.00
   2   4  -7   11.90   12.70
   2   4  -7   18.20   10.70
   2   4  -7   28.30   14.10
  -2  -5   7    1.00    5.00
  -2  -5   7    1.70    2.60
   2   5  -7    6.40    6.30
   2   5  -7    1.60    2.60
  -2  -6   7   56.49   28.50
  -2  -6   7   67.59   25.20
   2   6  -7   47.60   22.30
   2   6  -7   37.60   19.40
   2   6  -7   60.09   22.30
  -2  -7   7    4.60    6.10
  -2  -7   7    5.00    3.40
   2   7  -7    0.60    2.40
   2   7  -7    2.40    5.40
  -2  -8   7    4.90    7.20
  -2  -8   7   14.40    6.60
   2   8  -7    5.90    7.20
   3  -6   5   11.40    9.20
   3  -6   5   13.30    5.70
   3  -5   5   11.50    5.20
   3  -4   5   22.90    9.70
   3   0   5    5.10    2.00
   3   1   5   11.20    3.70
  -3  -2  -5    3.00    3.60
   3   2   5    4.60    2.10
   3   2   5    4.10    3.00
   3   2   5   12.40    9.10
  -3  -3  -5   13.70    6.30
   3   3   5   13.20   43.90
   3   3   5    5.70    2.30
   3   3   5    6.20    3.80
   3   3   5    2.20    5.30
   3   4   5    7.30    2.50
   3   4   5   11.90    9.30
   3   4   5    8.80    4.60
   3   5   5    3.30    6.00
   3   5   5   10.50    5.00
   3   6   5   -4.30    6.70
   3   6   5    5.40    3.10
   3 -10   4   29.30   11.40
   3  -9   4    9.90    5.00
   3  -8   4  138.59   49.99
   3  -7   4   17.50   11.30
   3  -6   4   12.40    9.50
   3  -6   4    4.00    3.30
   3  -5   4   41.80   19.20
   3  -5   4   62.29   25.70
   3  -4   4   54.69   24.30
   3  -3   4    2.60    6.40
   3  -3   4   15.10    7.50
   3  -2   4   59.89   28.50
   3  -2   4   42.70   17.90
   3  -1   4  333.67  149.99
   3  -1   4  133.29   53.49
   3   0   4    5.20    6.60
   3   0   4    1.80    3.00
  -3  -1  -4  122.09   24.20
   3   1   4  111.99   22.10
   3   1   4   82.49   33.50
   3   1   4  212.48   95.99
  -3  -2  -4   56.99   21.70
  -3  -2  -4   26.20    5.60
   3   2   4   30.10    6.30
   3   2   4   28.00   12.20
   3   2   4   52.19   25.00
  -3  -3  -4    2.00    0.90
   3   3   4   26.20   10.60
   3   3   4    2.70    3.50
   3   3   4   45.60   22.70
   3   4   4   69.29   28.80
   3   6   4    2.60    8.90
   3   6   4    5.50    3.70
   3   7   4    3.80    6.50
   3   7   4    4.20    3.50
   3   8   4   16.70    7.10
   3   9   4   -0.40    2.40
   3  10   4    2.20    2.60
   3  -8   3   83.59   33.90
   3  -7   3   29.40   12.70
  -3   6  -3   10.30    5.10
   3  -6   3   -0.40    7.60
   3  -6   3    2.60    2.70
  -3   5  -3   33.70   18.60
   3  -5   3   37.10   21.80
   3  -5   3   59.89   22.00
  -3   4  -3  130.19   66.29
  -3   4  -3  107.49   42.10
   3  -4   3   54.99   29.80
   3  -4   3  131.39   51.09
  -3   3  -3    8.10    7.70
  -3   3  -3    3.80    3.30
   3  -3   3   47.80   26.60
   3  -3   3    3.90    2.90
  -3   2  -3   19.30   12.10
  -3   2  -3    6.60    4.30
   3  -2   3   13.30   11.20
   3  -2   3    5.20    3.50
  -3   1  -3   51.69   27.30
  -3   1  -3   37.90   15.60
   3  -1   3   75.69   39.70
   3  -1   3   35.50   14.60
  -3   0  -3  799.22  399.76
   3   0   3  799.82  400.46
   3   0   3  445.16  171.88
  -3  -1  -3   66.09   34.00
  -3  -1  -3   39.40    7.00
  -3  -1  -3   48.80   19.90
   3   1   3   38.60    6.90
   3   1   3   33.30   13.60
   3   1   3   87.19   45.00
  -3  -2  -3   17.10   10.40
  -3  -2  -3    2.70    3.50
   3   2   3    8.60    9.50
   3   2   3    3.60    3.10
  -3  -3  -3    3.10    6.10
  -3  -3  -3   13.50    7.10
   3   3   3    2.30    8.20
   3   3   3   15.70    7.20
  -3  -4  -3   47.10   25.10
   3   4   3   33.30   20.20
   3   4   3   68.99   27.30
  -3  -5  -3   34.00   19.30
  -3  -5  -3   19.20    7.90
   3   5   3   39.40   22.10
   3   5   3   27.70   10.70
  -3  -6  -3   13.60    9.60
  -3  -6  -3    1.60    3.00
   3   6   3    4.80    3.40
   3   8   3    5.60    4.00
   3   9   3    1.60    2.60
  -3   5  -2  405.16  154.88
   3  -5   2  410.96  157.08
  -3   4  -2  404.26  203.88
  -3   4  -2  871.71  332.67
   3  -4   2  456.05  230.08
   3  -4   2  700.13  267.17
  -3   3  -2   57.09   27.80
   3  -3   2   76.99   37.00
  -3   2  -2   19.90   11.40
   3  -2   2   22.80   12.90
  -3   1  -2  954.20  442.56
  -3   1  -2  778.42  265.87
   3  -1   2 1440.26  667.53
   3  -1   2  701.13  239.48
  -3   0  -2   30.00   15.20
  -3   0  -2    2.70    3.00
   3   0   2   66.69   32.20
   3   0   2    2.30    2.60
  -3  -1  -2 1101.89  510.65
  -3  -1  -2  502.65  185.78
  -3  -1  -2  495.65  169.48
   3   1   2  443.86  164.48
   3   1   2  496.95  169.88
   3   1   2  746.13  346.07
  -3  -2  -2    5.70    6.00
   3   2   2  153.48   57.49
   3   2   2   10.70    9.30
  -3  -3  -2   37.90   19.50
  -3  -3  -2   20.70    8.00
   3   3   2   63.59   31.30
   3   3   2   33.30   11.90
  -3  -4  -2  270.37  103.49
   3   4   2  224.28   85.79
  -3  -5  -2  137.89   53.29
   3   5   2  112.89   43.50
   3  -3   1  136.89   45.30
  -3   2  -1   57.49   26.40
  -3   2  -1   73.49   24.50
   3  -2   1   95.99   43.40
   3  -2   1   84.99   28.30
  -3   1  -1   36.50   21.20
  -3   1  -1   15.20    7.80
   3  -1   1    7.00    1.90
   3  -1   1   11.40   15.70
   3  -1   1   15.80    8.50
  -3   0  -1  108.59   44.50
  -3   0  -1   13.20    3.10
  -3   0  -1    5.70    2.80
   3   0   1   10.10    2.70
   3   0   1    8.90    3.50
   3   0   1  112.99   46.40
  -3  -1  -1   30.40   15.70
   3   1   1   21.80   12.10
   3   1   1    8.70    3.50
   3   1   1    8.90    5.90
   3   2   1   44.40   21.10
   3   2   1   26.50    9.10
  -3  -3  -1   51.59   17.40
   3   3   1   38.90   13.10
   3  -3   0   62.89   12.60
  -3   2   0   16.00    3.60
  -3   2   0   58.09   31.90
   3  -2   0   21.30    4.70
  -3   1   0  571.04  110.89
  -3   1   0  536.85  201.78
   3  -1   0  520.85  101.09
   3  -1   0  854.81  321.77
   3  -1   0  595.94  223.78
  -3   0   0   17.00    4.00
  -3   0   0   29.50   15.50
   3   0   0   16.20    3.90
   3   0   0   13.80   11.10
  -3  -1   0  895.71  173.68
  -3  -1   0  687.73  257.07
   3   1   0  614.84  230.28
  -3  -2   0   51.59   25.30
   3   2   0   54.69   25.70
   3   3   0   71.59   30.20
   3  15   0   12.00    7.80
  -3   4   1  189.28   37.20
   3  -4  -1  163.78   32.10
  -3   3   1  232.48   45.50
  -3   3   1  151.58   63.79
   3  -3  -1  260.97   50.89
   3  -3  -1  220.28   91.09
  -3   2   1   51.19   23.00
  -3   2   1  218.98   43.30
  -3   2   1  136.89   51.69
  -3   2   1  309.97  119.09
   3  -2  -1  217.28   42.70
   3  -2  -1  363.36  138.59
   3  -2  -1  140.09   52.89
   3  -2  -1   84.79   37.40
  -3   1   1 1442.86  689.33
  -3   1   1  813.32  153.58
  -3   1   1 1150.78  394.06
  -3   1   1  788.72  295.07
   3  -1  -1  853.91  161.08
   3  -1  -1 1032.80  385.76
   3  -1  -1  740.43  253.57
   3  -1  -1 1850.91  883.91
  -3   0   1 1273.17  608.14
  -3   0   1  712.33  267.07
  -3   0   1 1371.86  469.75
   3   0  -1  769.82  287.77
   3   0  -1  941.71  177.68
   3   0  -1 1291.37  442.26
   3   0  -1  949.71  453.75
  -3  -1   1 1126.79  420.56
  -3  -1   1 1027.70  193.78
  -3  -1   1 1185.88  406.16
   3   1  -1  929.31  175.18
   3   1  -1 1185.88  406.16
   3   1  -1 1106.59  412.56
   3   2  -1  285.77  109.59
  -3  -3   1   68.59   31.40
  -3 -10   1   33.20   27.40
  -3 -11   1   37.80   28.60
   3  11  -1    4.40   10.90
  -3 -12   1    0.00    8.10
   3  12  -1    0.20    6.30
   3  13  -1   47.90   25.10
   3  14  -1   25.70   18.80
   3  15  -1    2.90    6.40
   3  -6  -2   67.39   14.00
  -3   5   2  166.68   74.79
  -3   5   2  260.27   86.09
   3  -5  -2  285.97   57.19
   3  -5  -2  256.37  107.39
   3  -5  -2  301.77   99.69
  -3   4   2   73.09   37.50
  -3   4   2  119.99   24.00
  -3   4   2  113.59   49.99
  -3   4   2   75.29   29.00
   3  -4  -2  133.09   26.70
   3  -4  -2   62.39   24.20
   3  -4  -2  138.09   60.39
  -3   3   2  330.47  127.49
  -3   3   2  286.27   56.29
  -3   3   2  264.97  100.09
  -3   3   2  282.97  123.69
   3  -3  -2  274.97   53.99
   3  -3  -2  340.97  131.89
  -3   2   2 1149.48  429.86
  -3   2   2  871.11  169.18
  -3   2   2 2284.87  994.80
  -3   2   2  689.63  259.77
   3  -2  -2 1000.90  374.56
   3  -2  -2 2346.57 1021.60
  -3   1   2 3409.66 1483.75
  -3   1   2 2202.08  819.72
  -3   1   2 2369.86  891.21
   3  -1  -2 1715.73  639.14
   3  -1  -2 1977.40  382.86
   3  -1  -2 2226.38  837.22
   3  -1  -2 5406.96 2353.26
  -3   0   2   63.29   28.80
  -3   0   2    6.90    4.50
   3   0  -2    2.80    2.10
   3   0  -2   55.69   25.70
   3   0  -2    5.30    4.00
  -3  -1   2 2564.14  953.90
  -3  -1   2 2143.29  933.11
  -3  -1   2 1226.78  461.45
   3   1  -2 1715.03  332.07
   3   1  -2 2732.53 1016.20
  -3  -2   2  829.62  311.17
  -3  -2   2 1017.50  443.26
  -3  -2   2 1871.01  703.63
   3   2  -2  762.12  285.87
   3   2  -2 1000.90  436.16
  -3  -3   2   49.20   27.20
  -3  -3   2  477.15  179.88
   3   3  -2  404.86  152.68
  -3  -7   2   30.30   22.90
  -3  -8   2   66.89   36.20
   3   8  -2   52.29   26.40
   3   9  -2    5.20    8.80
  -3 -10   2    1.10   10.90
  -3 -11   2   21.90   23.40
   3  11  -2  169.48   87.59
  -3 -12   2    7.60   13.50
   3  12  -2    9.60   12.40
   3  15  -2   23.50   15.00
  -3   7   3   17.60   28.40
  -3   7   3   13.60    4.30
  -3   7   3   13.40    5.80
   3  -7  -3    9.40    3.20
   3  -7  -3   21.20    8.10
  -3   6   3   -0.30   19.20
  -3   6   3    8.30    3.20
   3  -6  -3    9.10    3.10
   3  -6  -3    5.30    4.00
   3  -6  -3    9.30   20.70
  -3   5   3   22.00   20.30
  -3   5   3   21.40    5.50
  -3   5   3   70.09   32.70
  -3   5   3   20.40    7.90
   3  -5  -3   37.50   25.90
   3  -5  -3   60.29   28.70
   3  -5  -3   23.50    9.30
  -3   4   3  644.54  252.87
  -3   4   3  618.34  123.49
  -3   4   3  423.46  189.58
  -3   4   3  415.46  137.29
   3  -4  -3  666.93  133.09
   3  -4  -3  403.96  181.18
   3  -4  -3  411.26  135.89
  -3   3   3   51.89   29.60
  -3   3   3   36.10    8.60
  -3   3   3  105.89   48.10
  -3   3   3  117.19   39.20
   3  -3  -3   99.39   45.50
   3  -3  -3   53.09   11.80
   3  -3  -3  106.19   35.70
   3  -3  -3   43.40   24.40
  -3   2   3  124.09   55.49
  -3   2   3  172.08   34.40
  -3   2   3  178.88   78.39
   3  -2  -3   81.59   31.50
   3  -2  -3  193.18   38.50
   3  -2  -3  343.17  149.88
   3  -2  -3  128.49   54.39
  -3   1   3  131.39   55.79
  -3   1   3   40.70    9.30
  -3   1   3   90.09   40.00
  -3   1   3   41.50   16.50
   3  -1  -3  146.69   64.69
   3  -1  -3   36.50    8.40
   3  -1  -3   41.90   16.40
   3  -1  -3   94.99   40.20
  -3   0   3 1287.47  481.55
  -3   0   3 1238.58  240.48
  -3   0   3 1458.75  635.34
  -3   0   3 1800.12  677.13
   3   0  -3 1081.09  209.98
   3   0  -3 1272.77  475.55
   3   0  -3 1112.69  484.75
   3   0  -3 1585.34  596.64
  -3  -1   3   63.39   28.70
  -3  -1   3   51.49   11.50
  -3  -1   3  101.49   39.20
  -3  -1   3   67.29   34.30
   3   1  -3   36.10    8.30
   3   1  -3   67.09   31.80
   3   1  -3  115.29   44.10
   3   1  -3   73.79   33.60
  -3  -2   3  232.28  101.79
  -3  -2   3   84.19   41.20
  -3  -2   3   98.79   37.80
   3   2  -3   55.79   30.00
   3   2  -3   89.69   34.30
   3   2  -3  405.86  177.28
  -3  -3   3   46.00   22.00
  -3  -3   3    6.70   21.70
  -3  -3   3   45.10   15.70
   3   3  -3   37.20   18.60
   3   3  -3   32.80   11.60
  -3  -4   3  652.83  255.37
  -3  -4   3 1053.29  347.07
   3   4  -3  798.92  306.77
   3   4  -3  900.21  296.57
  -3  -5   3   92.49   49.80
  -3  -5   3  101.09   34.20
   3   5  -3   34.60   21.80
   3   5  -3   93.09   31.40
  -3  -6   3   -0.50   10.90
  -3  -6   3   37.20   14.30
   3   6  -3   32.70   22.50
  -3  -7   3   24.40   21.80
   3   7  -3   82.09   40.10
  -3  -8   3  126.19   63.29
   3   8  -3  398.16  163.98
   3   9  -3    0.60   10.20
  -3 -10   3    5.10   15.80
  -3 -11   3    1.30   13.60
   3  11  -3   29.10   26.80
  -3 -12   3    0.20    8.50
   3  12  -3   62.69   38.60
  -3 -13   3    2.20    8.80
   3  13  -3    4.80   10.10
   3  14  -3    1.80    5.20
   3  15  -3    3.00    6.10
  -3  11   4   13.10    7.00
  -3  10   4    2.50    3.70
   3  -9  -4   22.60    6.00
  -3   8   4   73.59   47.60
  -3   8   4   73.59   13.70
  -3   8   4   86.79   45.70
  -3   8   4   49.60   20.80
   3  -8  -4   56.59   10.90
   3  -8  -4  105.39   54.79
   3  -8  -4   66.09   35.40
   3  -8  -4   70.39   28.10
  -3   7   4   67.19   15.70
  -3   7   4   41.70   25.70
  -3   7   4   58.99   23.70
   3  -7  -4   72.59   16.80
   3  -7  -4   78.09   30.80
   3  -7  -4   77.89   41.50
  -3   6   4    1.90   18.70
  -3   6   4    8.20    3.60
  -3   6   4   18.60   13.10
   3  -6  -4   63.99   25.40
   3  -6  -4    9.00    4.30
   3  -6  -4   14.70   11.90
   3  -6  -4    0.80   20.70
  -3   5   4 1313.67  286.67
  -3   5   4 1228.38  569.74
  -3   5   4 1314.97  604.34
   3  -5  -4 1483.05  323.37
   3  -5  -4 1146.29  391.46
   3  -5  -4 1402.86  650.63
  -3   4   4  337.77  131.69
  -3   4   4  210.58   47.50
  -3   4   4  358.26  166.98
   3  -4  -4  244.28   54.49
   3  -4  -4  229.78  107.99
   3  -4  -4  225.38   87.49
  -3   3   4 2785.62 1290.67
  -3   3   4 1598.74  592.44
  -3   3   4 1380.86  471.65
   3  -3  -4 1391.96  515.15
   3  -3  -4 1375.36  299.87
   3  -3  -4 1288.17  440.06
   3  -3  -4 3115.39 1443.46
  -3   2   4   22.40   12.60
  -3   2   4    6.60    3.90
  -3   2   4   25.30   10.30
  -3   2   4   44.30   25.10
   3  -2  -4    6.20    4.10
   3  -2  -4   38.30   21.90
   3  -2  -4   28.90   11.30
   3  -2  -4   31.40   17.30
  -3   1   4 4131.89 1845.42
  -3   1   4 3614.24  716.13
  -3   1   4 3059.49 1007.30
  -3   1   4 3540.75 1306.37
   3  -1  -4 3515.15  696.63
   3  -1  -4 3162.38 1166.38
   3  -1  -4 2962.60  975.00
   3  -1  -4 7062.29 3152.48
  -3   0   4   12.60    4.70
  -3   0   4   58.49   30.90
  -3   0   4   20.20   11.80
  -3   0   4   11.80    6.50
  -3   0   4    7.90   14.00
   3   0  -4   13.00    4.60
   3   0  -4   10.80    5.80
   3   0  -4   43.30   22.30
   3   0  -4   50.39   26.90
  -3  -1   4 3004.80 1110.19
  -3  -1   4 3892.21 1404.76
  -3  -1   4 3598.24  712.93
  -3  -1   4 5199.18 1710.93
  -3  -1   4 3614.24 1614.44
   3   1  -4 3579.04 1291.07
   3   1  -4 3129.49  620.24
   3   1  -4 1911.91  854.21
   3   1  -4 3183.78 1174.68
   3   1  -4 4240.58 1395.16
  -3  -2   4   15.80   19.60
  -3  -2   4  703.03  264.67
   3   2  -4    8.00   14.60
   3   2  -4  533.95  200.88
   3   2  -4   16.30    7.40
   3   2  -4   57.69   29.50
  -3  -3   4  697.93  263.67
   3   3  -4 1287.87  597.54
   3   3  -4 1123.29  383.46
  -3  -4   4  170.58   74.59
   3   4  -4  371.36  143.59
   3   4  -4   92.59   40.40
   3   4  -4  302.77  103.89
   3   4  -4  169.48   80.59
  -3  -5   4  976.30  453.15
  -3  -5   4 2258.37  770.42
   3   5  -4 1235.08  572.94
   3   5  -4 1526.85  521.25
  -3  -6   4    7.30   15.60
  -3  -6   4   21.30   10.10
   3   6  -4   11.20   14.80
   3   6  -4   20.00    9.30
  -3  -7   4  237.78   91.79
   3   7  -4  226.18   87.19
  -3  -8   4    3.20   16.30
  -3  -8   4  229.88   89.59
   3   8  -4  161.98   90.89
  -3  -9   4   42.80   37.90
   3   9  -4  168.18   92.99
  -3 -10   4    9.40   18.90
   3  10  -4   28.10   22.90
  -3 -11   4   10.30   16.00
   3  11  -4   10.50   12.10
  -3 -12   4   62.99   39.40
  -3 -13   4   24.50   17.40
   3  13  -4   11.20    9.50
   3  14  -4    1.50    4.40
  -3  13   5   -0.20    2.00
  -3  12   5    1.90    2.60
  -3  11   5    4.50    4.30
   3 -11  -5    3.80    2.00
  -3  10   5    1.60    1.70
  -3  10   5   -1.80   12.50
  -3  10   5    1.90    3.40
   3 -10  -5    1.00    1.60
  -3   9   5    5.60   15.10
  -3   9   5    5.60    2.40
  -3   9   5    5.30    4.40
  -3   9   5    2.40    6.10
   3  -9  -5    5.10    2.30
  -3   8   5   59.79   12.80
  -3   8   5   56.89   37.50
  -3   8   5   86.99   40.60
   3  -8  -5   59.89   12.70
  -3   7   5   10.00    9.30
  -3   7   5   10.80    4.00
  -3   7   5    9.20    4.80
  -3   7   5   15.50   23.90
   3  -7  -5   15.70    5.20
   3  -7  -5    7.50   20.20
   3  -7  -5   10.50    5.70
   3  -7  -5   10.30   10.20
  -3   6   5    8.80    9.30
  -3   6   5   19.60    6.20
  -3   6   5   12.20    6.00
  -3   6   5  235.18  105.09
   3  -6  -5   18.80    6.00
   3  -6  -5  251.17  114.29
   3  -6  -5   14.30    7.00
   3  -6  -5   10.70   11.80
  -3   5   5   20.80   18.40
  -3   5   5   67.99   36.30
   3  -5  -5   17.30    4.70
   3  -5  -5   22.10   18.60
   3  -5  -5   63.79   34.80
  -3   4   5  518.65  171.38
  -3   4   5  331.37   58.59
  -3   4   5 1080.09  540.75
  -3   4   5  370.36  143.79
   3  -4  -5  879.71  440.66
   3  -4  -5  429.46   75.39
   3  -4  -5  380.26  147.49
   3  -4  -5  488.65  162.28
  -3   3   5   10.10   11.90
  -3   3   5    3.30   10.30
  -3   3   5    6.60    3.40
  -3   3   5    3.90    4.40
  -3   3   5   14.40   10.20
   3  -3  -5   10.80    4.40
   3  -3  -5   11.30    9.50
   3  -3  -5    0.70    3.30
  -3   2   5   15.50   15.50
  -3   2   5    9.80    4.60
  -3   2   5  127.49   65.29
   3  -2  -5   14.80   11.80
   3  -2  -5    6.40    3.50
   3  -2  -5  263.07  133.29
   3  -2  -5  105.09   48.80
  -3   1   5   67.79   41.30
  -3   1   5   13.50   15.00
  -3   1   5   66.99   35.40
  -3   1   5   51.29   20.80
  -3   1   5   45.40   12.10
   3  -1  -5   60.39   32.70
   3  -1  -5   50.79   20.50
   3  -1  -5  109.79   56.89
   3  -1  -5   52.09   31.70
  -3   0   5  789.32  364.96
  -3   0   5  576.44  233.38
  -3   0   5  894.41  196.48
  -3   0   5 1119.09  427.56
  -3   0   5  812.02  408.76
   3   0  -5 1235.08  621.54
   3   0  -5  765.02  168.08
   3   0  -5  767.22  353.46
   3   0  -5  991.90  378.66
  -3  -1   5   42.20   11.30
  -3  -1   5   37.30   28.90
  -3  -1   5   39.80   27.30
  -3  -1   5   58.59   23.60
  -3  -1   5   93.09   48.20
   3   1  -5   73.09   39.80
   3   1  -5   29.60    8.40
   3   1  -5   59.39   23.90
   3   1  -5  132.29   68.79
   3   1  -5   28.70   25.30
  -3  -2   5    6.80    8.70
  -3  -2   5   10.20   13.20
  -3  -2   5   18.00    9.30
   3   2  -5    2.40   12.60
   3   2  -5   29.20   22.60
   3   2  -5   20.30    9.40
   3   2  -5   10.10   10.30
  -3  -3   5   14.40   10.90
  -3  -3   5   -2.70   11.20
  -3  -3   5    7.30    5.40
   3   3  -5   26.80   27.00
   3   3  -5  121.69   44.50
   3   3  -5    6.90    4.20
   3   3  -5    9.10    9.70
  -3  -4   5  342.27  172.48
  -3  -4   5    1.60    9.80
  -3  -4   5  405.56  156.98
   3   4  -5    4.10   10.20
   3   4  -5  349.96  135.49
   3   4  -5  236.38  119.69
  -3  -5   5   21.90   15.10
  -3  -5   5    7.00   17.90
   3   5  -5   25.90   25.70
   3   5  -5   13.10    6.60
   3   5  -5    6.80    9.70
  -3  -6   5   12.90   11.20
  -3  -6   5   14.70   22.40
  -3  -6   5   49.50   18.90
   3   6  -5   40.50   31.80
   3   6  -5   38.50   14.80
   3   6  -5   12.10   10.30
  -3  -7   5   12.60   10.40
  -3  -7   5   22.20   27.00
  -3  -7   5   33.30   13.30
   3   7  -5   30.10   25.10
   3   7  -5   29.90   11.90
  -3  -8   5  183.38   88.59
  -3  -8   5  177.98   71.59
   3   8  -5  208.68   83.39
  -3  -9   5   15.50   19.30
  -3  -9   5   17.10    9.20
   3   9  -5   12.40   12.40
  -3 -10   5   12.30   15.80
  -3 -10   5   17.00    8.80
   3  10  -5    8.20    9.50
  -3 -11   5   64.79   39.20
   3  11  -5   68.69   35.90
  -3 -12   5    2.30    8.00
   3  12  -5    1.20    3.50
  -3 -13   5   -1.00    3.90
   3  13  -5    1.40    3.80
  -3  11   6   31.60    8.20
  -3  11   6   12.50    9.40
  -3  11   6   12.00    6.00
   3 -11  -6   19.10    5.50
  -3  10   6   33.80   18.80
  -3  10   6    9.60    5.10
   3 -10  -6   17.20    5.60
  -3   9   6    4.20    2.50
  -3   9   6    0.80    6.50
  -3   9   6    5.00    3.50
   3  -9  -6    6.60    3.50
  -3   8   6    6.00   14.60
  -3   8   6    9.20    3.30
  -3   8   6    1.50    3.00
  -3   8   6    4.10    6.20
   3  -8  -6    9.30    3.50
  -3   7   6  119.59   49.80
  -3   7   6   68.79   30.40
  -3   7   6   63.29   26.80
  -3   6   6   31.20   16.30
  -3   6   6   38.80    9.60
  -3   6   6   59.19   28.90
  -3   6   6   26.70   12.70
  -3   6   6   66.69   29.50
   3  -6  -6   41.60    9.90
  -3   5   6  242.38   94.89
  -3   5   6  191.58   39.00
  -3   5   6  306.47  138.19
  -3   5   6  124.29   50.79
   3  -5  -6  158.18   32.10
   3  -5  -6  206.38   83.19
   3  -5  -6  122.49   53.39
  -3   4   6   13.50   17.20
  -3   4   6   28.60   14.80
  -3   4   6    1.00    4.50
   3  -4  -6   13.80    4.60
   3  -4  -6    4.30    7.50
   3  -4  -6    9.20    6.50
   3  -4  -6   16.60    9.60
   3  -4  -6   15.90   15.50
  -3   3   6    6.20   12.80
  -3   3   6    0.40    5.30
  -3   3   6    1.60    2.00
  -3   3   6    7.00    5.00
  -3   3   6   10.80    7.60
   3  -3  -6   -0.50    7.60
   3  -3  -6    2.50    2.30
   3  -3  -6   23.50   12.60
   3  -3  -6   13.40   14.50
   3  -3  -6   10.60    6.50
  -3   2   6  126.59   57.29
  -3   2   6   62.29   15.80
  -3   2   6  107.79   54.49
   3  -2  -6   51.09   19.30
   3  -2  -6   67.79   16.60
   3  -2  -6  112.49   62.19
   3  -2  -6  147.59   73.89
   3  -2  -6  148.19   68.09
  -3   1   6  198.28   87.49
  -3   1   6  235.58   53.49
  -3   1   6  191.88   69.39
   3  -1  -6  215.68   48.70
   3  -1  -6  152.98   55.49
   3  -1  -6  290.87  122.19
  -3   0   6    1.40    2.30
  -3   0   6  142.29   64.89
  -3   0   6   -1.20    9.10
  -3   0   6   -0.90    3.10
  -3   0   6   11.80    9.10
   3   0  -6   11.60   15.70
   3   0  -6    0.90    2.00
   3   0  -6    0.50    3.20
   3   0  -6    4.50    7.10
   3   0  -6  129.39   58.79
  -3  -1   6  206.08   90.99
  -3  -1   6   44.60   35.60
  -3  -1   6  226.18   50.99
  -3  -1   6  385.36  191.08
   3   1  -6  237.28   85.39
   3   1  -6  260.17   58.19
   3   1  -6  219.68  116.99
   3   1  -6  207.08  103.49
   3   1  -6  170.58   75.39
  -3  -2   6   25.20   20.40
  -3  -2   6   67.09   44.70
  -3  -2   6  150.48   54.89
  -3  -2   6   24.40    7.40
   3   2  -6   63.69   45.70
   3   2  -6  136.99   49.90
   3   2  -6   24.30   22.20
  -3  -3   6    6.10    7.20
  -3  -3   6    5.10   11.20
  -3  -3   6    2.00    3.90
   3   3  -6    4.70    4.70
   3   3  -6   -0.30    4.30
   3   3  -6    6.00    7.60
   3   3  -6   10.60   15.20
  -3  -4   6    8.60   14.50
  -3  -4   6   10.80   16.80
  -3  -4   6   11.00    6.20
  -3  -4   6    7.80    6.90
   3   4  -6    8.70    7.20
   3   4  -6    8.80   12.50
  -3  -5   6  194.98   88.69
  -3  -5   6  398.16  165.98
  -3  -5   6  175.18   70.19
   3   5  -6  294.77  122.69
   3   5  -6  147.59   59.19
   3   5  -6  136.19   62.29
  -3  -6   6   85.89   43.60
  -3  -6   6   46.40   21.70
  -3  -6   6   58.39   24.90
   3   6  -6   54.69   29.30
  -3  -7   6  246.98  102.49
  -3  -7   6   62.59   28.50
  -3  -7   6  171.08   69.89
   3   7  -6  187.38   76.39
  -3  -8   6    0.60    8.80
  -3  -8   6   30.00   15.50
  -3  -8   6   85.09   38.30
   3   8  -6    6.70    8.70
  -3  -9   6    1.90    7.60
  -3  -9   6    6.10    6.50
  -3  -9   6   20.80    9.20
   3   9  -6   13.80   10.10
  -3 -10   6    7.30   11.40
  -3 -10   6   91.89   34.20
   3  10  -6   25.60   15.00
  -3 -11   6   34.90   21.90
  -3 -11   6  145.99   52.59
   3  11  -6   69.39   29.50
  -3   8   7    0.60    1.40
  -3   8   7    4.00    6.00
  -3   8   7    0.70    2.00
  -3   7   7    2.50    2.30
  -3   7   7   16.50   10.80
  -3   7   7    3.20    3.30
  -3   6   7   -0.10    1.60
  -3   6   7    5.20    6.10
  -3   6   7    0.70    2.60
   3  -6  -7   -0.20    1.20
  -3   5   7  139.79   36.20
  -3   5   7  338.07  157.78
  -3   5   7  138.49   50.59
   3  -5  -7  127.79   33.60
   3  -5  -7  109.79   39.70
  -3   4   7    0.30    1.40
  -3   4   7    5.00    5.50
  -3   4   7    1.40    2.70
   3  -4  -7    0.70    1.70
  -3   3   7   46.20   11.30
  -3   3   7   70.09   31.50
  -3   3   7   51.89   24.00
   3  -3  -7   55.09   12.70
   3  -3  -7   25.20   19.20
  -3   2   7   42.80   24.80
  -3   2   7    3.10    2.50
  -3   2   7    6.20    4.70
  -3   2   7    8.00    6.90
   3  -2  -7    4.30    2.70
   3  -2  -7    1.30    4.90
  -3   1   7  141.49   62.39
  -3   1   7  271.67  116.59
  -3   1   7  267.67  116.89
   3  -1  -7  166.78   34.80
   3  -1  -7   91.89   45.90
  -3   0   7   93.39   40.30
  -3   0   7    5.20    3.00
  -3   0   7    5.70    4.70
  -3   0   7    4.10    6.20
   3   0  -7    2.30    2.20
   3   0  -7   -0.60    2.90
  -3  -1   7   65.49   35.10
  -3  -1   7  163.28   33.90
  -3  -1   7  231.38  101.59
  -3  -1   7  358.26  153.18
   3   1  -7  150.58   31.40
   3   1  -7  104.29   51.49
  -3  -2   7   13.30   16.40
  -3  -2   7    4.70    2.60
  -3  -2   7   22.40   11.80
  -3  -2   7   43.10   20.70
   3   2  -7    4.80    8.50
  -3  -3   7   28.50   14.90
  -3  -3   7   70.69   32.40
   3   3  -7   55.39   29.60
  -3  -4   7    7.20    6.90
   3   4  -7    4.00    6.90
  -3  -5   7  110.79   53.09
  -3  -5   7  111.99   40.90
   3   5  -7  163.78   56.99
  -3  -6   7   10.60    8.40
  -3  -6   7   12.00    5.90
   3   6  -7   53.09   23.60
  -3  -7   7   14.90    9.90
  -3  -7   7    5.90    3.80
   3   7  -7    1.40    3.90
  -3  -8   7   -0.70    5.90
  -3  -8   7    1.30    2.20
   4  -6   4   19.10   11.30
   4  -6   4   64.09   23.20
   4  -5   4   14.20    8.90
   4  -5   4   16.10    6.50
   4  -4   4    1.30    5.90
   4  -4   4    3.30    2.50
   4  -3   4   79.69   38.40
   4  -3   4   65.19   24.10
   4  -2   4    8.10    8.10
   4  -2   4   12.20    5.40
   4  -1   4   38.30   19.50
   4  -1   4   16.40    6.80
   4   0   4   45.30   22.80
   4   0   4    6.30    3.50
   4   1   4   18.00    4.80
   4   1   4   98.79   46.80
   4   1   4   16.20    6.90
  -4  -2  -4   12.30    3.40
   4   2   4   17.80   10.60
   4   3   4   33.80   17.60
   4   3   4   38.50   14.60
   4   4   4    2.30    5.70
   4   4   4    5.20    3.30
   4   5   4    1.40    6.30
   4   6   4   22.40   13.00
   4   6   4   10.30    4.70
   4  -8   3   22.10    8.80
   4  -7   3   77.99   34.50
   4  -6   3   27.30   14.40
   4  -6   3   68.39   30.30
   4  -5   3   21.30   11.50
   4  -5   3   21.70    9.60
   4  -4   3   15.40    8.90
   4  -4   3   82.49   33.60
   4  -3   3   21.10   11.20
   4  -3   3  165.38   66.89
   4  -2   3  302.57  136.09
   4  -2   3  190.38   75.69
   4  -1   3  171.68   77.69
   4  -1   3  158.78   63.29
   4   0   3   16.10    9.90
   4   0   3    1.60    2.80
  -4  -1  -3   36.20   15.50
   4   1   3   78.69   31.70
   4   1   3  433.06  194.28
  -4  -2  -3  141.79   52.59
   4   2   3  122.29   45.50
   4   2   3  128.89   51.59
   4   2   3   98.79   45.50
   4   3   3    5.30    6.90
   4   3   3   50.89   21.00
   4   4   3    6.30    7.40
   4   4   3    9.70    5.10
   4   5   3    6.20    6.50
   4   5   3   10.40    5.40
   4   6   3   13.50    7.00
   4   7   3   12.80    6.80
   4   8   3    3.70    2.70
   4   9   3    1.90    2.30
   4  -6   2   36.20   15.00
  -4   5  -2   48.50   18.10
   4  -5   2   64.59   23.50
   4  -4   2  209.08  104.39
   4  -4   2  331.37  118.29
  -4   3  -2  513.85  253.27
   4  -3   2  424.66  209.78
   4  -3   2  260.47   92.89
  -4   2  -2   40.20   21.70
  -4   2  -2   19.70    8.50
   4  -2   2   58.89   31.70
   4  -2   2   32.00   13.10
  -4   1  -2 1274.37  636.84
  -4   1  -2  510.35  196.98
   4  -1   2  124.89   21.80
   4  -1   2 1115.89  557.94
   4  -1   2  564.34  217.68
  -4   0  -2  333.97   57.99
  -4   0  -2  384.46  158.78
  -4   0  -2  715.83  358.26
  -4   0  -2  456.05  176.08
   4   0   2  438.46   76.09
   4   0   2  308.77  119.19
   4   0   2 1343.47  671.73
  -4  -1  -2  479.05  196.18
  -4  -1  -2  508.45   88.19
   4   1   2  403.26  165.78
   4   1   2  382.56  192.18
  -4  -2  -2   15.20   10.10
  -4  -2  -2  177.48   73.69
   4   2   2  198.38   82.19
   4   2   2   20.90    8.90
   4   2   2   13.30   11.40
  -4  -3  -2  320.17  114.49
   4   3   2  259.57   92.69
  -4  -4  -2  104.49   37.90
   4   4   2   97.99   35.30
  -4  -5  -2   12.40    5.70
   4   5   2   11.40    4.90
  -4   3  -1   81.39   31.60
   4  -3   1   40.50   21.70
   4  -3   1   77.59   30.00
  -4   2  -1   17.50    4.30
  -4   2  -1   57.69   33.50
  -4   1  -1   78.59   40.20
  -4   1  -1   75.79   40.50
  -4   1  -1   39.90   15.70
   4  -1   1   57.69   34.10
   4  -1   1   30.00   11.90
   4  -1   1   60.79   31.50
  -4   0  -1   17.10   13.30
  -4   0  -1    8.30    5.40
   4   0   1   17.60   14.30
   4   0   1   25.00   14.20
  -4  -1  -1   12.80    8.10
  -4  -1  -1   22.60   14.70
  -4  -1  -1   27.30   11.10
  -4  -1  -1   26.50    6.50
   4   1   1   28.60    7.10
   4   1   1   27.30   10.90
   4   1   1   25.90   16.50
  -4  -2  -1  103.39   50.09
  -4  -2  -1   37.80   15.00
   4   2   1   79.39   39.90
   4   2   1   25.10   10.00
  -4  -3  -1    2.10    9.70
  -4  -3  -1   23.50    9.80
   4   3   1   18.50   15.20
   4   3   1   19.90    8.20
   4  -4   0   25.10    6.20
  -4   3   0  828.32  180.38
   4  -3   0  910.71  198.18
   4  -3   0  545.15  206.68
  -4   2   0   59.09   13.70
   4  -2   0   70.29   16.20
  -4   1   0 1722.13  374.56
  -4   1   0 1192.28  440.96
  -4   1   0 3361.76 1559.14
  -4   1   0 2335.07  797.02
   4  -1   0 2060.49  448.06
   4  -1   0 1510.25  558.24
   4  -1   0 1563.94  533.95
   4  -1   0 3876.21 1798.82
  -4   0   0  424.36  158.18
  -4   0   0   53.89   12.80
  -4   0   0  151.58   51.89
   4   0   0   48.80   11.60
   4   0   0  101.39   34.70
   4   0   0  308.97  116.09
  -4  -1   0 2003.30  435.56
  -4  -1   0 1709.33  630.84
  -4  -1   0  705.93  240.88
   4   1   0 2293.17  498.55
   4   1   0 1566.44  578.44
  -4  -3   0  761.82  282.67
   4   3   0 1140.19  422.16
   4   4   0    5.90   12.80
  -4   5   1    4.50    2.40
  -4   5   1    7.90   28.90
   4  -5  -1    2.80    1.80
  -4   4   1   17.30    4.80
  -4   4   1   -2.80   18.70
   4  -4  -1   20.00    5.20
   4  -4  -1   14.90   27.30
  -4   3   1   93.09   21.30
  -4   3   1   70.89   35.60
   4  -3  -1   97.89   22.20
   4  -3  -1   86.89   40.60
  -4   2   1 1070.89  212.88
  -4   2   1  703.03  262.27
   4  -2  -1 1056.79  209.78
   4  -2  -1 1122.59  416.76
  -4   1   1  151.78   62.39
  -4   1   1   96.19   20.20
  -4   1   1  360.76  161.28
   4  -1  -1  124.39   52.19
   4  -1  -1  269.67  120.69
  -4   0   1   31.80   18.70
  -4   0   1   22.50   10.90
  -4   0   1    3.10    2.20
   4   0  -1   13.10   13.70
   4   0  -1   47.30   15.70
   4   0  -1   32.80   15.60
  -4  -1   1  145.19   29.70
  -4  -1   1  163.28   67.49
   4   1  -1  114.39   49.10
  -4  -2   1 1506.45  557.64
   4   2  -1 1251.07  463.35
  -4  -3   1   81.79   36.20
   4   3  -1   74.79   33.80
  -4  -4   1    1.20   12.70
   4   4  -1    1.80   11.80
   4  -7  -2   36.00    8.80
  -4   6   2    0.90    1.80
  -4   6   2   -0.20   20.90
   4  -6  -2   -5.90   21.10
  -4   5   2   65.39   45.70
  -4   5   2  175.08   38.90
  -4   5   2  138.69   47.80
   4  -5  -2  209.98   46.40
   4  -5  -2  195.68   67.09
  -4   4   2   89.19   42.50
  -4   4   2   93.79   32.60
   4  -4  -2  114.59   26.00
   4  -4  -2  154.58   65.49
   4  -4  -2   92.89   32.20
  -4   3   2  167.98   67.59
  -4   3   2  174.38   39.30
  -4   3   2  137.39   64.29
  -4   3   2  177.18   60.89
   4  -3  -2  116.29   54.89
   4  -3  -2  205.28   45.70
   4  -3  -2  200.58   68.79
   4  -3  -2  272.87  105.39
  -4   2   2   18.70   15.60
   4  -2  -2   10.70    3.40
   4  -2  -2   23.00   16.60
  -4   1   2   55.69   28.90
  -4   1   2   37.80    9.20
  -4   1   2   47.80   16.30
   4  -1  -2   41.80    9.40
   4  -1  -2   34.50   11.90
   4  -1  -2   56.19   29.20
  -4   0   2  112.89   48.20
  -4   0   2   86.39   18.70
  -4   0   2   71.69   32.80
  -4   0   2  120.29   40.10
   4   0  -2   72.89   15.60
   4   0  -2   99.89   43.30
   4   0  -2   84.69   39.00
   4   0  -2  131.99   43.80
  -4  -1   2   50.29   28.10
  -4  -1   2   59.19   27.40
   4   1  -2   50.29   26.40
   4   1  -2   84.59   38.90
  -4  -2   2   17.00   19.00
  -4  -2   2   88.99   29.90
   4   2  -2   12.40   15.80
   4   2  -2   48.10   16.30
  -4  -3   2  140.79   58.09
  -4  -3   2  449.26  153.78
   4   3  -2   93.79   40.60
   4   3  -2  304.37  104.29
  -4  -4   2   21.70   20.10
  -4 -11   2    2.90    9.80
  -4 -12   2    7.20   10.40
   4  12  -2   17.80   14.50
   4  13  -2   42.40   24.20
   4  14  -2    1.00    4.10
  -4   8   3    1.20    1.30
  -4   8   3    3.00   17.50
   4  -8  -3    0.60    1.30
   4  -8  -3   12.50    6.40
  -4   7   3   41.20   25.30
   4  -7  -3  169.58   30.00
   4  -7  -3  100.89   41.50
  -4   6   3   40.80   22.00
  -4   6   3    3.60   12.90
  -4   6   3   15.50    7.70
  -4   6   3   13.10    4.20
   4  -6  -3   15.50    4.80
   4  -6  -3   15.10    7.10
  -4   5   3   40.20   22.00
  -4   5   3   14.60    7.10
  -4   4   3   13.30   19.30
  -4   4   3   50.19   12.50
  -4   4   3    6.30    3.90
  -4   4   3   14.50    9.30
   4  -4  -3   47.00   11.70
   4  -4  -3   12.70   11.20
   4  -4  -3    9.60   17.60
  -4   3   3  587.04  221.68
  -4   3   3  434.26   95.49
  -4   3   3  324.37  111.29
  -4   3   3 1155.48  535.55
   4  -3  -3  454.05   99.79
   4  -3  -3 1239.28  574.84
   4  -3  -3  478.35  181.28
  -4   2   3   23.70   20.50
  -4   2   3   27.70    7.60
  -4   2   3  108.49   51.19
   4  -2  -3   34.20   12.50
   4  -2  -3   19.20    5.90
   4  -2  -3  111.29   52.69
   4  -2  -3   25.90   16.90
  -4   1   3  495.05  187.28
  -4   1   3  406.16   89.49
  -4   1   3  817.72  379.36
  -4   1   3  432.36  147.99
   4  -1  -3 1309.27  607.14
   4  -1  -3  360.76   79.59
   4  -1  -3  386.66  132.29
   4  -1  -3  514.45  192.98
  -4   0   3   25.50   19.30
  -4   0   3    2.70    2.70
  -4   0   3    9.60    7.70
  -4   0   3    3.20    4.00
   4   0  -3    1.80    2.40
   4   0  -3    2.60    3.70
   4   0  -3   24.00   16.40
  -4  -1   3  638.14  240.18
  -4  -1   3  362.36   79.89
  -4  -1   3  828.32  283.27
   4   1  -3  348.67   76.89
   4   1  -3  810.12  276.77
   4   1  -3  497.85  187.08
  -4  -2   3   95.39   43.90
  -4  -2   3   64.69   31.60
  -4  -2   3   26.10    9.90
   4   2  -3   71.89   33.60
  -4  -3   3  343.17  132.69
  -4  -3   3  503.35  234.08
  -4  -3   3  953.20  325.67
   4   3  -3  210.48   82.19
   4   3  -3  492.75  229.18
  -4  -4   3   -2.20   18.80
  -4  -4   3   12.60    6.00
   4   4  -3   29.40   10.90
  -4  -5   3   35.50   14.90
   4   5  -3    1.10   13.90
   4   5  -3   46.80   18.80
  -4  -8   3    0.00   13.50
  -4  -9   3   27.60   26.60
   4   9  -3    5.90   12.10
  -4 -10   3   19.80   21.60
   4  10  -3    9.00   10.70
   4  11  -3   84.49   39.80
  -4 -12   3    1.20    7.80
   4  13  -3   12.90   11.50
   4  14  -3   13.90   11.00
   4 -10  -4   24.60    6.00
  -4   9   4   45.30   10.00
  -4   9   4   18.00   25.00
  -4   9   4   19.70    9.70
   4  -9  -4   32.10    7.30
  -4   8   4  117.29   26.60
  -4   8   4   29.50   36.50
  -4   8   4  114.09   57.49
   4  -8  -4  120.29   27.10
   4  -8  -4   72.79   46.70
  -4   7   4   86.89   50.79
  -4   7   4   99.79   22.90
  -4   7   4   33.00   19.30
  -4   7   4   90.09   33.00
   4  -7  -4  125.39   28.40
   4  -7  -4   97.49   35.70
   4  -7  -4  100.89   58.29
  -4   6   4   54.49   35.40
  -4   6   4   47.60    9.60
  -4   6   4   52.99   28.50
  -4   6   4   49.30   20.20
   4  -6  -4   27.90   17.70
   4  -6  -4   56.79   11.20
   4  -6  -4   50.79   20.60
   4  -6  -4   78.29   45.80
  -4   5   4   26.80   17.80
  -4   5   4   30.10    6.80
  -4   5   4    5.30    8.00
   4  -5  -4    6.80    5.30
   4  -5  -4   17.90   13.80
   4  -5  -4   11.80   12.30
  -4   4   4  910.41  299.17
  -4   4   4  726.73  159.78
  -4   4   4  198.98   76.89
  -4   4   4 1255.57  631.44
   4  -4  -4  749.73  164.18
   4  -4  -4 1145.59  576.44
   4  -4  -4  827.32  270.27
  -4   3   4  767.22  355.96
  -4   3   4  593.14  130.69
  -4   3   4  538.45  206.18
  -4   3   4 1111.09  558.94
   4  -3  -4  668.23  146.69
   4  -3  -4 1545.35  777.12
   4  -3  -4  658.63  303.37
  -4   2   4   35.50   28.30
  -4   2   4   18.10    6.30
  -4   2   4   38.40   15.90
   4  -2  -4   13.70    5.30
   4  -2  -4   13.80    7.00
   4  -2  -4   35.30   26.30
  -4   1   4  622.84  289.17
  -4   1   4  413.56   91.59
  -4   1   4  952.60  479.35
  -4   1   4  521.85  199.68
   4  -1  -4  409.36   90.49
   4  -1  -4  599.54  278.47
   4  -1  -4 1134.49  570.74
   4  -1  -4  479.95  183.48
  -4   0   4 2104.89 1058.39
  -4   0   4 1736.83  378.96
  -4   0   4 2343.67  893.81
  -4   0   4 1586.94  727.93
   4   0  -4 1488.85  324.97
   4   0  -4 1719.53  784.82
   4   0  -4 2168.18  826.72
   4   0  -4 1391.96  700.13
  -4  -1   4  362.66  183.18
  -4  -1   4  481.85  106.29
  -4  -1   4  669.83  256.07
  -4  -1   4  637.84  297.57
   4   1  -4  346.77   76.69
   4   1  -4  557.04  258.77
   4   1  -4  591.84  226.18
   4   1  -4  383.46  193.98
  -4  -2   4   24.50   14.70
  -4  -2   4  147.99   77.89
  -4  -2   4   21.10   10.00
  -4  -2   4   13.60    5.10
   4   2  -4  226.88  109.79
   4   2  -4    7.50    4.50
   4   2  -4   27.70   17.10
  -4  -3   4  541.35  272.87
  -4  -3   4  591.14  278.07
  -4  -3   4  572.34  218.88
   4   3  -4  512.25  238.28
   4   3  -4  432.66  165.48
   4   3  -4  592.74  298.97
  -4  -4   4  635.34  320.17
  -4  -4   4   73.99   32.10
  -4  -4   4 1330.37  507.75
   4   4  -4  609.04  307.27
   4   4  -4 1116.59  426.26
  -4  -5   4    8.80   18.00
  -4  -5   4   11.50    9.30
   4   5  -4    2.20   10.50
  -4  -6   4   85.19   56.29
  -4  -6   4  155.78   61.19
   4   6  -4   54.09   35.30
   4   6  -4  106.59   42.30
  -4  -7   4   98.19   62.09
  -4  -7   4  323.77  116.19
   4   7  -4   95.79   54.59
   4   7  -4  267.97   96.29
  -4  -9   4   19.70   21.40
   4   9  -4   92.59   48.40
  -4 -10   4   14.00   17.20
   4  10  -4   94.89   44.80
  -4 -11   4    1.40    8.50
   4  11  -4    4.20    8.40
   4  12  -4   46.00   21.70
   4  13  -4   48.00   21.90
  -4  12   5    0.30    2.20
   4 -12  -5    0.70    1.60
  -4  11   5    1.00    1.90
  -4  11   5    1.90   14.40
  -4  11   5    3.90    3.40
   4 -11  -5    2.50    2.40
  -4  10   5    4.20    2.10
  -4  10   5    2.30   15.60
  -4  10   5   15.40   11.10
   4 -10  -5    2.90    1.90
  -4   9   5    4.60    2.10
  -4   9   5   -0.50   11.00
  -4   9   5    4.20    3.90
   4  -9  -5    7.80    2.80
   4  -9  -5   -0.80   16.70
  -4   8   5    3.20    2.00
  -4   8   5    1.70    9.60
   4  -8  -5    5.90    2.80
   4  -8  -5    4.30   14.30
  -4   7   5   43.00   10.00
  -4   7   5   27.60   20.80
  -4   7   5   18.60   10.60
   4  -7  -5   56.09   12.50
   4  -7  -5   36.60   26.60
  -4   6   5    8.80    3.60
  -4   6   5   11.80   17.60
  -4   6   5    4.80    5.70
   4  -6  -5   14.20    4.70
   4  -6  -5   13.40   15.70
  -4   5   5   37.70   10.30
  -4   5   5   75.99   39.20
  -4   5   5   29.40   12.00
   4  -5  -5   39.00   10.20
   4  -5  -5   43.00   26.00
  -4   4   5    6.80   13.70
  -4   4   5   10.00    4.00
  -4   4   5   32.50   18.20
  -4   4   5    2.80    3.70
   4  -4  -5   13.30    4.80
   4  -4  -5    8.10   14.50
   4  -4  -5    9.70    9.90
   4  -4  -5    1.60    3.70
  -4   3   5  235.08  118.79
  -4   3   5   87.19   16.70
  -4   3   5  107.49   42.70
  -4   3   5  168.38   77.99
   4  -3  -5   92.49   17.50
   4  -3  -5   87.69   34.70
   4  -3  -5  240.28  121.39
  -4   2   5   29.40   21.70
  -4   2   5   18.60    5.00
  -4   2   5   39.10   21.60
  -4   2   5   21.40   10.20
   4  -2  -5   32.90   19.00
   4  -2  -5   20.70    5.10
   4  -2  -5   13.40    7.10
   4  -2  -5   38.20   22.70
  -4   1   5   83.99   42.20
  -4   1   5   60.09   12.30
  -4   1   5   88.69   35.30
   4  -1  -5   89.49   35.50
   4  -1  -5   57.89   29.90
  -4   0   5   12.30   12.20
  -4   0   5    0.60    1.70
  -4   0   5   21.20   13.30
  -4   0   5    3.30    4.60
   4   0  -5   14.70   11.40
   4   0  -5    0.00    1.70
   4   0  -5    0.50    3.80
   4   0  -5    8.00   12.60
  -4  -1   5   74.59   40.90
  -4  -1   5   30.70   27.40
  -4  -1   5   48.70   10.10
  -4  -1   5  108.59   43.10
   4   1  -5   41.50   23.70
   4   1  -5   44.20    9.00
   4   1  -5   57.99   32.00
   4   1  -5   80.89   32.30
  -4  -2   5  231.18  116.39
  -4  -2   5    2.60    2.00
  -4  -2   5   54.29   33.20
  -4  -2   5    4.20    8.10
   4   2  -5   19.70    9.10
   4   2  -5  182.58   93.79
   4   2  -5   97.49   47.90
  -4  -3   5   31.60   26.10
  -4  -3   5  191.68  102.89
  -4  -3   5   73.19   29.30
  -4  -3   5  105.29   54.49
   4   3  -5   78.79   45.40
   4   3  -5  105.19   54.69
   4   3  -5   31.30   23.20
  -4  -4   5    1.20   16.60
   4   4  -5   10.50   18.00
   4   4  -5    1.00    6.30
   4   4  -5   14.00   11.80
   4   4  -5   64.59   23.80
  -4  -5   5    5.80   17.20
  -4  -5   5   -3.30   17.60
  -4  -5   5   36.40   21.50
   4   5  -5    3.90   13.90
  -4  -6   5    4.90   13.70
  -4  -6   5   14.60    9.50
  -4  -6   5   18.40    9.50
   4   6  -5    3.60    8.20
  -4  -7   5   36.10   29.20
  -4  -7   5  203.08   81.49
   4   7  -5   99.09   49.10
  -4  -8   5    1.10    9.30
  -4  -8   5   61.39   26.30
   4   8  -5   43.50   25.10
  -4  -9   5    0.00    7.90
  -4  -9   5   23.70   11.40
   4   9  -5   17.10   14.20
  -4 -10   5    1.70   10.10
  -4 -10   5   29.90   14.90
  -4 -11   5   -0.60    6.10
   4  11  -5   15.80   11.80
  -4 -12   5   -0.80    6.30
   4  12  -5    1.40    4.10
  -4  10   6   10.80    3.60
  -4  10   6   20.80   12.70
  -4  10   6    4.60    3.50
   4 -10  -6   10.70    3.90
  -4   9   6    0.90    1.70
  -4   9   6    9.10    7.90
  -4   9   6    1.50    2.70
  -4   8   6    5.40   12.80
  -4   8   6    3.30    2.70
  -4   8   6    0.10    2.20
  -4   8   6    5.40    6.10
   4  -8  -6    3.90    3.20
  -4   7   6  184.68   82.89
  -4   7   6  131.09   27.80
  -4   7   6  120.19   53.29
  -4   7   6  181.68   78.29
   4  -7  -6  179.28   37.00
  -4   6   6   46.80   27.00
  -4   6   6   20.20    5.90
  -4   6   6   29.70   13.70
  -4   6   6  212.38   91.19
   4  -6  -6   27.10    7.20
  -4   5   6   69.29   30.50
  -4   5   6   38.80    9.50
  -4   5   6   26.90   13.00
  -4   5   6   81.89   35.40
   4  -5  -6   62.29   13.90
  -4   4   6   15.10    5.00
  -4   4   6   13.30   15.80
  -4   4   6   36.80   16.90
   4  -4  -6   18.00    5.30
   4  -4  -6    7.80   11.10
  -4   3   6  831.82  310.17
  -4   3   6  662.73  130.59
  -4   3   6  708.43  280.17
  -4   3   6  955.50  427.56
   4  -3  -6  605.84  226.48
  -4   2   6    9.00    3.90
  -4   2   6   18.10   15.00
  -4   2   6   21.70   11.70
   4  -2  -6    8.20    3.60
   4  -2  -6   19.80   17.10
  -4   1   6  737.53  276.07
  -4   1   6  644.24  127.09
  -4   1   6  606.24  239.88
  -4   1   6  579.34  259.77
   4  -1  -6  577.14  113.59
   4  -1  -6  530.15  198.18
   4  -1  -6 1165.48  452.45
  -4   0   6    8.30   14.40
  -4   0   6   10.90    4.60
  -4   0   6  210.28   83.49
  -4   0   6   33.90   15.60
  -4   0   6    8.30    6.80
   4   0  -6    6.40    3.50
   4   0  -6  158.28   63.39
   4   0  -6    7.50   12.80
  -4  -1   6  322.77  125.59
  -4  -1   6  677.43  303.67
   4   1  -6  418.66  158.18
  -4  -2   6    9.50   13.50
  -4  -2   6    7.00    3.50
  -4  -2   6  362.66  139.99
  -4  -2   6    9.60    7.00
  -4  -2   6   11.30    8.90
   4   2  -6    3.70    2.60
   4   2  -6  360.16  137.39
   4   2  -6    0.40    5.80
  -4  -3   6  178.48   73.69
  -4  -3   6  358.26  152.08
  -4  -3   6 1172.78  463.35
  -4  -3   6  540.05  242.68
   4   3  -6  696.63  276.27
   4   3  -6  123.49   51.39
  -4  -4   6    2.00   13.30
  -4  -4   6   10.80   14.30
  -4  -4   6    6.10    4.90
  -4  -4   6   11.70    7.80
   4   4  -6    8.80   10.60
   4   4  -6    6.50   12.30
  -4  -5   6   -2.30   11.30
  -4  -5   6   58.99   26.20
  -4  -5   6   58.19   24.60
   4   5  -6   81.39   38.90
   4   5  -6    0.70   10.20
  -4  -6   6    5.10   11.00
  -4  -6   6   30.80   15.60
   4   6  -6   54.39   29.70
  -4  -7   6  160.18   69.79
  -4  -7   6  284.67  124.19
  -4  -8   6    0.50    8.70
  -4  -8   6    2.20    5.30
   4   8  -6   64.69   29.70
  -4  -9   6    2.00    7.20
  -4  -9   6    2.80    3.30
   4   9  -6   10.40   10.10
  -4 -10   6   15.20   12.90
  -4 -10   6   34.80   13.90
   4  10  -6   14.00   11.80
  -4   7   7    9.50    4.40
  -4   7   7   12.80    9.00
  -4   7   7    5.30    4.10
   4  -7  -7   12.00    4.80
  -4   6   7  191.38   86.29
  -4   6   7   56.79   21.70
  -4   5   7    0.70    1.60
  -4   5   7    7.50    6.60
  -4   5   7   11.50    6.10
   4  -5  -7    0.70    2.20
  -4   4   7    8.40    4.40
  -4   4   7   23.30   12.90
  -4   4   7    7.90    4.60
   4  -4  -7    5.10    3.70
   4  -4  -7   10.20    8.40
  -4   3   7    6.00    3.80
  -4   3   7    2.20    4.90
  -4   3   7    3.10    3.00
   4  -3  -7    3.80    3.10
   4  -3  -7    0.60    2.40
  -4   2   7  353.46  143.39
  -4   2   7  318.97   80.19
  -4   2   7  236.08   84.89
  -4   2   7  325.97  151.78
   4  -2  -7  340.37   84.89
   4  -2  -7  279.07   91.69
  -4   1   7    9.90   14.20
  -4   1   7   24.10   12.90
  -4   1   7   22.20   11.50
   4  -1  -7    2.30    2.20
   4  -1  -7    0.50    3.40
  -4   0   7    5.40   11.70
  -4   0   7    1.40    1.80
  -4   0   7   -0.80    2.90
  -4   0   7    2.50    5.30
   4   0  -7    0.10    1.70
  -4  -1   7  183.38   80.39
  -4  -1   7   18.00   10.50
  -4  -1   7    1.70    3.90
   4   1  -7    5.10    2.70
   4   1  -7    9.60   11.00
  -4  -2   7  333.27   83.49
  -4  -2   7  104.89   50.89
  -4  -2   7  300.47  108.09
   4   2  -7  262.67   65.99
   4   2  -7  462.05  147.49
  -4  -3   7    4.40   10.40
  -4  -3   7    2.70    6.20
  -4  -4   7    6.00    7.00
  -4  -4   7   14.90    7.80
   4   4  -7    6.40    7.60
  -4  -5   7    7.20    6.70
   4   5  -7    1.90    4.30
  -4  -6   7   76.79   36.10
  -4  -6   7   89.09   32.30
   4   6  -7   92.19   36.60
  -4  -7   7   11.10    8.70
  -4  -7   7   11.50    5.90
   4   7  -7    3.90    5.80
   5  -5   3   13.30    8.50
   5  -5   3   17.80    7.00
   5  -4   3   37.40   18.20
   5  -4   3   55.59   20.00
   5  -3   3   12.20    8.40
   5  -3   3   30.60   11.60
   5  -2   3    6.80    7.10
   5  -2   3    5.90    3.20
   5  -1   3   32.60   17.20
   5  -1   3   26.50   10.10
   5   0   3   91.59   22.70
   5   0   3  293.57  136.39
   5   0   3  143.59   51.39
  -5  -1  -3   50.29   19.70
  -5  -1  -3   21.80    5.60
   5   1   3   15.70    6.30
   5   1   3   27.40   14.40
  -5  -2  -3   15.30    7.90
   5   2   3    2.00    2.20
   5   2   3    5.80    6.60
   5   3   3    2.80    5.90
   5   3   3    3.80    2.50
   5   4   3   50.89   24.90
   5   4   3   53.09   19.20
   5   5   3    3.20    5.70
   5   5   3   10.10    4.50
   5  -6   2    8.90    4.10
   5  -5   2   37.10   17.50
   5  -5   2   23.90   11.10
   5  -4   2    7.60    7.30
   5  -4   2    8.50    4.60
   5  -3   2   12.30    7.60
   5  -3   2   25.00   10.60
   5  -2   2   13.20    3.00
   5  -2   2   27.20   11.70
  -5   1  -2    7.80    8.30
   5  -1   2   18.30    4.10
   5  -1   2   36.20   15.30
   5  -1   2   22.10   11.00
  -5   0  -2   12.90    8.10
  -5   0  -2    2.20    0.90
   5   0   2    3.20    1.30
   5   0   2    6.00    3.30
   5   0   2   33.40   15.30
  -5  -1  -2   30.10    6.40
  -5  -1  -2   22.40   10.30
   5   1   2   33.40    7.10
   5   1   2   26.40   11.20
   5   1   2   17.10    9.20
  -5  -2  -2   43.10   17.20
   5   2   2    2.10    5.40
   5   2   2    5.60    3.30
   5   3   2   15.30    8.80
   5   3   2   12.50    5.80
  -5  -4  -2   -1.50    5.70
   5   4   2   -0.50    2.20
   5   5   2    3.80    3.10
   5   6   2    0.30    2.40
   5  -4   1   39.90   16.30
  -5   3  -1   14.00   14.50
  -5   3  -1   11.20    2.90
  -5   3  -1   25.80   12.30
  -5   3  -1   60.59   24.40
   5  -3   1   14.70    3.70
   5  -3   1   29.40   14.50
   5  -3   1   44.20   17.90
  -5   2  -1   22.80   16.10
  -5   2  -1   18.90    9.30
   5  -2   1   13.10    7.40
  -5   1  -1  270.27  133.29
  -5   1  -1   99.79   22.80
  -5   1  -1  204.48   73.19
   5  -1   1  103.19   23.20
   5  -1   1  159.18   56.99
   5  -1   1  393.06  193.58
  -5   0  -1   39.00   19.70
  -5   0  -1    9.50    3.10
  -5   0  -1    6.00    3.00
  -5   0  -1   65.39   29.40
   5   0   1    8.30    2.80
   5   0   1   50.89   24.80
   5   0   1    9.40    3.80
   5   0   1   24.50   13.50
  -5  -1  -1  113.69   48.10
  -5  -1  -1  165.48   36.90
  -5  -1  -1   47.40   24.00
  -5  -1  -1   97.99   35.30
   5   1   1   71.69   36.20
   5   1   1  144.09   32.10
   5   1   1   83.79   30.10
   5   1   1  160.18   67.39
  -5  -2  -1   55.59   26.10
  -5  -2  -1    2.30    2.20
   5   2   1   75.69   33.20
   5   2   1    1.10    1.80
  -5  -3  -1   16.30   12.60
  -5  -3  -1   13.20    6.20
   5   3   1   23.10   14.20
   5   3   1   10.90    5.00
  -5  -4  -1   -1.10    6.20
   5  -5   0   91.39   20.60
  -5   4   0   11.90    3.50
   5  -4   0   18.60    5.00
  -5   3   0   59.29   13.80
   5  -3   0   81.99   18.80
  -5   2   0  546.75   95.29
   5  -2   0  588.04  102.39
   5  -2   0  903.41  347.97
  -5   1   0  557.04   97.29
  -5   1   0  588.64  242.88
   5  -1   0  630.14  109.69
   5  -1   0  741.43  304.87
  -5   0   0   15.60    3.90
  -5   0   0  226.08   94.89
   5   0   0    8.30    2.60
   5   0   0  183.68   77.89
  -5  -1   0  540.05  222.48
  -5  -1   0  192.58   74.29
   5   1   0  426.66  177.48
  -5  -2   0  695.73  285.77
  -5  -3   0  117.89   52.59
  -5  -4   0    3.90   11.20
   5   4   0   12.70   16.00
   5   5   0    3.90   13.00
  -5   6   1    1.10    1.50
  -5   6   1   -4.30   19.20
   5  -6  -1    1.70    1.40
  -5   5   1   56.99   13.50
  -5   5   1    0.70   16.70
   5  -5  -1   63.49   14.60
   5  -5  -1   24.90   27.90
  -5   4   1   22.20    4.90
  -5   4   1   46.40   29.40
   5  -4  -1   21.40   26.70
  -5   3   1   59.59   11.60
  -5   3   1   67.89   28.30
   5  -3  -1   90.49   36.00
  -5   2   1   29.00   15.50
  -5   2   1    3.80    3.80
  -5   2   1    1.80    1.60
   5  -2  -1   16.00   12.10
   5  -2  -1   36.60   14.40
   5  -2  -1   21.70   11.90
  -5   1   1  117.69   21.70
  -5   1   1   96.69   34.90
   5  -1  -1  130.09   45.20
  -5   0   1  103.09   24.00
  -5   0   1   95.89   34.50
   5   0  -1   77.09   18.20
   5   0  -1  115.09   40.70
  -5  -1   1  144.69   50.79
   5   1  -1  111.99   39.50
  -5  -2   1   31.10   16.30
   5   2  -1   49.30   20.40
  -5  -3   1   50.39   22.10
   5   3  -1   49.50   21.60
  -5  -4   1   13.80   14.70
   5   4  -1   10.70   15.20
  -5  -5   1    3.00   13.40
   5   5  -1    3.70   12.80
   5  -8  -2   23.80    5.70
  -5   7   2   -2.80   17.80
  -5   6   2   12.50    3.90
  -5   6   2    1.60   17.20
   5  -6  -2   17.70    4.90
   5  -6  -2    5.30   23.60
  -5   5   2  296.17   52.19
   5  -5  -2  271.27   47.80
   5  -5  -2  160.58   62.29
  -5   4   2   74.39   32.40
  -5   4   2   30.50    6.70
  -5   4   2   30.20   16.50
   5  -4  -2   34.90    7.30
   5  -4  -2   12.90    9.80
   5  -4  -2   62.09   28.00
  -5   3   2  159.28   80.09
  -5   3   2  273.57   92.79
  -5   3   2  144.59   56.19
   5  -3  -2  363.96  121.09
   5  -3  -2  163.08   63.19
   5  -3  -2  180.68   91.19
  -5   2   2  139.09   70.39
  -5   2   2   98.29   36.80
  -5   2   2  103.29   40.00
   5  -2  -2   68.09   27.30
   5  -2  -2   77.29   30.20
   5  -2  -2  145.19   73.69
  -5   1   2  870.21  190.98
  -5   1   2  900.21  294.07
   5  -1  -2  807.82  176.78
   5  -1  -2  787.72  257.77
  -5   0   2   89.09   33.40
  -5   0   2    8.30    4.30
   5   0  -2  132.29   46.50
   5   0  -2    0.20    2.00
   5   0  -2   21.20    8.90
   5   0  -2   14.40    9.70
  -5  -1   2  874.91  440.06
  -5  -1   2 1060.29  232.48
  -5  -1   2  840.72  320.87
  -5  -1   2 1017.20  331.67
   5   1  -2  780.72  170.78
   5   1  -2 1063.49  346.07
   5   1  -2 1147.19  437.46
   5   1  -2  755.12  379.96
  -5  -2   2   70.59   29.40
  -5  -2   2   71.19   17.40
  -5  -2   2  103.09   39.90
   5   2  -2   64.39   26.50
   5   2  -2   85.79   33.30
  -5  -3   2  161.78   57.59
   5   3  -2  155.58   54.89
  -5  -4   2   14.90   13.00
   5   4  -2   12.50   13.60
  -5  -5   2   33.20   23.50
  -5   9   3    0.80    1.30
  -5   9   3   -4.00   12.40
   5  -9  -3    0.50    1.30
  -5   8   3   54.39   11.60
  -5   8   3    1.80   12.80
   5  -8  -3   48.30   10.50
   5  -8  -3   10.80   18.80
  -5   7   3    1.70    1.50
  -5   7   3  -13.20   31.00
  -5   7   3    3.00    4.40
   5  -7  -3    1.40    1.70
  -5   6   3   12.90   19.00
  -5   6   3   15.50    6.90
   5  -6  -3   41.90   32.50
   5  -6  -3    8.30    4.70
  -5   5   3   10.00    8.00
  -5   5   3   11.90    4.40
  -5   5   3    7.60    4.50
  -5   5   3   28.00   24.10
   5  -5  -3   12.00    4.40
   5  -5  -3   48.50   30.70
   5  -5  -3    7.00    4.50
   5  -5  -3    4.90    8.20
  -5   4   3  317.97  136.69
  -5   4   3  423.06   74.39
  -5   4   3  471.95  236.48
  -5   4   3  344.17  133.09
   5  -4  -3  435.56   76.49
   5  -4  -3  491.15  205.78
   5  -4  -3  289.57  145.89
   5  -4  -3  356.96  138.19
  -5   3   3   14.50    9.30
  -5   3   3   29.40   17.80
  -5   3   3   34.20   14.30
   5  -3  -3   26.60   15.30
   5  -3  -3   14.90    7.60
   5  -3  -3   30.70   17.60
  -5   2   3   13.90   12.40
  -5   2   3   12.90    3.90
  -5   2   3   47.20   24.70
   5  -2  -3   10.80    5.50
   5  -2  -3   14.10    4.00
   5  -2  -3   95.79   49.10
   5  -2  -3   21.30   12.90
  -5   1   3   11.40   11.50
  -5   1   3    4.20    2.40
  -5   1   3   24.30   14.10
   5  -1  -3    4.30    2.30
   5  -1  -3   28.50   16.70
   5  -1  -3    7.20    9.60
  -5   0   3 1168.28  203.08
  -5   0   3 1125.19  366.56
  -5   0   3 1872.01  721.23
   5   0  -3 1103.49  191.68
   5   0  -3  952.90  309.87
   5   0  -3 1552.74  598.24
   5   0  -3  432.06  216.88
  -5  -1   3   16.20   13.60
  -5  -1   3   11.30    4.00
  -5  -1   3   34.80   19.00
   5   1  -3   17.90    4.40
   5   1  -3   18.10   12.50
   5   1  -3   15.40   13.90
  -5  -2   3   39.20   21.90
  -5  -2   3   19.60    5.00
  -5  -2   3   20.10   12.80
  -5  -2   3   79.59   31.40
   5   2  -3   15.60   12.30
   5   2  -3   34.60   17.50
   5   2  -3   51.69   20.70
  -5  -3   3    7.80    7.90
  -5  -3   3    7.50   15.00
  -5  -3   3   20.50    9.40
   5   3  -3   13.90   14.40
   5   3  -3    7.80    4.70
  -5  -4   3  201.68   90.19
  -5  -4   3  890.31  343.57
   5   4  -3  118.89   54.79
   5   4  -3  659.93  254.57
  -5  -5   3   -1.20   15.40
  -5  -5   3   47.70   18.10
   5   6  -3    0.60   11.60
  -5  10   4    1.10    1.80
  -5  10   4   -6.50   18.50
  -5  10   4    1.30    2.70
  -5   9   4   -2.30   13.30
  -5   9   4    2.40    3.30
   5  -9  -4    4.30    2.10
   5  -9  -4    2.00   18.60
  -5   8   4    6.20   10.80
  -5   8   4    5.60    2.30
  -5   8   4    4.70    4.30
  -5   8   4   10.00    6.70
   5  -8  -4   12.80    4.00
  -5   7   4  155.38   69.69
  -5   7   4  208.08   41.80
  -5   7   4  157.68   63.29
  -5   7   4   77.79   36.10
   5  -7  -4  202.48   40.60
   5  -7  -4  231.38   94.59
  -5   6   4    1.00   14.50
  -5   6   4    4.10    2.40
  -5   6   4    4.60    4.00
  -5   6   4   18.90   10.20
   5  -6  -4    5.10    2.90
   5  -6  -4    7.90   17.30
  -5   5   4  121.89   57.29
  -5   5   4   57.19   29.30
  -5   5   4   39.80   15.80
   5  -5  -4   76.89   18.70
   5  -5  -4  167.88   74.99
  -5   4   4   16.50   18.90
  -5   4   4    8.50    3.50
  -5   4   4   26.30   10.70
  -5   4   4   44.70   23.50
   5  -4  -4    8.30    3.60
  -5   3   4  147.89   69.09
  -5   3   4  104.89   24.70
  -5   3   4  104.29   38.20
  -5   3   4  242.38  120.09
   5  -3  -4   97.29   22.80
   5  -3  -4  368.46  182.18
   5  -3  -4  125.89   56.79
  -5   2   4   59.99   33.90
  -5   2   4   38.90    8.40
  -5   2   4   51.99   26.90
   5  -2  -4   58.39   11.50
   5  -2  -4   71.49   36.80
   5  -2  -4   80.19   39.60
  -5   1   4   81.39   42.00
  -5   1   4   55.79   31.00
  -5   1   4   56.69   22.90
   5  -1  -4   39.20   23.50
   5  -1  -4   48.00   19.40
   5  -1  -4   64.79   34.10
  -5   0   4   18.10   11.20
  -5   0   4   13.50   17.10
  -5   0   4    0.50    3.60
  -5   0   4    0.70    1.50
   5   0  -4   -0.10    1.50
   5   0  -4    1.70    3.70
   5   0  -4    9.70   13.40
  -5  -1   4   23.60   14.30
  -5  -1   4   55.19   32.00
  -5  -1   4   56.79   23.10
   5   1  -4   44.80   26.10
   5   1  -4   71.99   28.90
  -5  -2   4   40.70   28.80
  -5  -2   4   17.60    4.60
  -5  -2   4   29.30   16.60
  -5  -2   4   24.20   10.80
   5   2  -4   20.10    4.90
   5   2  -4   14.10    6.80
   5   2  -4   23.20   19.10
  -5  -3   4   86.39   45.90
  -5  -3   4  102.79   51.89
  -5  -3   4  118.29   42.90
   5   3  -4   81.99   41.70
  -5  -4   4    4.90   17.90
  -5  -4   4   15.20   10.20
  -5  -4   4   29.40   11.80
   5   4  -4   12.30   17.70
  -5  -5   4    3.60   15.00
  -5  -5   4  131.19   47.80
  -5  -6   4   18.30    9.40
   5   6  -4   -0.40   13.00
  -5  -7   4  580.94  229.98
  -5  -9   4    0.10    7.10
  -5 -10   4    2.30    6.80
   5  10  -4    1.50    4.70
  -5 -11   4  106.19   44.20
   5  11  -4   71.99   28.70
   5  12  -4    0.00    2.20
  -5  10   5    2.80    2.00
  -5  10   5    5.90    6.40
  -5  10   5    2.50    3.20
   5 -10  -5    2.90    2.00
  -5   9   5    1.00    7.20
  -5   9   5    1.30    1.60
  -5   9   5    1.60    2.60
  -5   9   5    0.00    5.10
   5  -9  -5    2.70    2.60
  -5   8   5   23.90    6.30
  -5   8   5    0.70    4.90
  -5   8   5    1.30    3.80
   5  -8  -5   27.10    6.90
   5  -8  -5    6.70   17.70
  -5   7   5    5.60   11.00
  -5   7   5    1.00    1.40
  -5   7   5    5.90    4.30
  -5   7   5    1.20    4.70
   5  -7  -5    2.60    2.40
   5  -7  -5    3.00   13.50
  -5   6   5   14.00   12.60
  -5   6   5    1.80    1.70
  -5   6   5    3.40    3.40
  -5   6   5    5.30    5.10
   5  -6  -5    4.50    2.70
   5  -6  -5   19.40   15.80
  -5   5   5    1.80    9.80
  -5   5   5    0.90    1.50
  -5   5   5   16.90    8.80
  -5   5   5    6.60    5.30
   5  -5  -5    7.00    3.10
   5  -5  -5    2.50   10.00
  -5   4   5   31.00   18.90
  -5   4   5    5.60    4.80
  -5   4   5    4.10    4.80
   5  -4  -5    5.00    2.80
   5  -4  -5   23.60   16.00
  -5   3   5    3.70   10.40
  -5   3   5    3.60    2.30
  -5   3   5    4.10    4.10
  -5   3   5   22.10   11.40
   5  -3  -5    2.90    2.50
  -5   2   5    2.50    9.60
  -5   2   5    2.80    2.20
  -5   2   5    4.40    4.30
  -5   2   5   14.60    8.30
   5  -2  -5    5.20    2.80
   5  -2  -5    3.60   10.70
  -5   1   5   21.10   17.20
  -5   1   5    8.30    3.50
  -5   1   5   75.59   31.10
  -5   1   5   24.90   12.70
   5  -1  -5   23.30   17.40
  -5   0   5   30.90   24.30
  -5   0   5   33.60    8.80
  -5   0   5   41.50   18.20
  -5   0   5   30.90   15.40
   5   0  -5   26.30    7.10
   5   0  -5   41.50   25.60
  -5  -1   5   11.10   16.40
  -5  -1   5   41.90   20.20
  -5  -1   5   12.90    7.30
   5   1  -5    5.70    2.70
   5   1  -5    8.30   13.90
  -5  -2   5    7.90   14.40
  -5  -2   5    3.50    2.30
  -5  -2   5    6.30    4.80
  -5  -2   5    3.10    5.20
   5   2  -5    1.80    2.00
   5   2  -5   20.90   18.00
  -5  -3   5    4.90   11.80
  -5  -3   5   22.70   11.90
  -5  -3   5   16.60    8.20
   5   3  -5    7.00   13.00
  -5  -4   5    1.80   11.50
  -5  -4   5    4.30    5.10
  -5  -4   5   41.80   17.80
   5   4  -5    4.00   12.00
  -5  -5   5   -0.20   10.30
  -5  -5   5    0.60    4.30
  -5  -5   5    4.70    4.50
  -5  -6   5    1.40    9.10
  -5  -6   5    5.10    5.10
  -5  -6   5   11.60    6.80
   5   6  -5    2.00    9.50
  -5  -7   5   16.30   17.20
  -5  -7   5    0.70    3.20
   5   7  -5   37.40   23.10
  -5  -8   5    3.80   12.60
  -5  -8   5   11.10    7.40
   5   8  -5    0.20    2.90
  -5  -9   5   -0.90    4.30
   5   9  -5    0.00    1.50
  -5 -10   5   -0.70    5.40
   5  10  -5    2.00    4.10
  -5   8   6   54.69   13.80
  -5   8   6   35.80   17.90
   5  -8  -6   68.79   17.00
  -5   7   6   63.09   33.20
  -5   7   6   79.79   22.20
  -5   7   6   86.89   32.40
  -5   7   6   99.39   47.40
   5  -7  -6   98.99   26.90
  -5   6   6   52.29   28.00
  -5   6   6    4.90    3.40
  -5   6   6    7.80    5.00
  -5   6   6   56.29   27.70
   5  -6  -6    4.80    3.50
  -5   5   6  153.18   67.09
  -5   5   6   90.89   19.70
  -5   5   6   89.99   40.70
  -5   5   6  256.37  109.69
  -5   4   6   60.19   14.00
  -5   4   6   76.99   40.70
  -5   4   6  129.09   55.89
   5  -4  -6   58.89   13.50
   5  -4  -6   65.29   33.20
  -5   3   6   31.90   20.00
  -5   3   6   17.40    5.70
  -5   3   6   20.60   10.60
  -5   3   6   29.00   14.00
   5  -3  -6   32.80   19.90
  -5   2   6    7.40   10.80
  -5   2   6   18.50    5.70
  -5   2   6    8.30    5.40
  -5   2   6   26.80   13.20
   5  -2  -6   17.20    5.20
   5  -2  -6    3.40   10.30
  -5   1   6  107.19   44.50
  -5   1   6   66.49   15.20
  -5   1   6   83.99   35.00
  -5   1   6  164.88   69.49
   5  -1  -6   67.09   15.10
   5  -1  -6   69.39   30.00
  -5   0   6   20.90   15.50
  -5   0   6    0.10    1.40
  -5   0   6    0.10    3.10
  -5   0   6    4.80    5.30
   5   0  -6    0.50    1.80
   5   0  -6   16.20   15.10
  -5  -1   6   80.69   36.60
  -5  -1   6   89.09   20.10
  -5  -1   6   85.49   35.80
  -5  -1   6   81.59   35.20
   5   1  -6   63.89   14.10
   5   1  -6   69.39   31.50
  -5  -2   6    8.90   13.60
  -5  -2   6   10.70    4.00
  -5  -2   6    4.10    3.80
  -5  -2   6    1.60    4.80
   5   2  -6    8.10    3.30
   5   2  -6   10.60   14.90
  -5  -3   6   49.60   28.30
  -5  -3   6   11.10    8.00
   5   3  -6   47.40   26.40
  -5  -4   6   87.49   46.40
   5   4  -6   75.69   38.50
   5   4  -6   83.49   41.40
  -5  -5   6    6.00   14.40
   5   5  -6   48.10   25.80
   5   5  -6    2.60   14.60
  -5  -6   6   -2.10   11.20
  -5  -6   6   22.70   13.70
   5   6  -6    0.00    1.70
   5   6  -6    2.30   11.50
  -5  -7   6   85.49   41.40
  -5  -7   6  245.78   88.59
  -5  -8   6   26.70   17.50
  -5  -8   6   46.90   22.80
  -5  -8   6  115.49   41.80
   5   8  -6   84.49   32.80
  -5   4   7    0.70    1.40
  -5   4   7   16.40    9.50
  -5   4   7    0.90    2.20
   5  -4  -7    1.80    2.20
  -5   3   7    8.70    4.40
  -5   3   7   19.90   10.90
  -5   3   7   13.30    6.30
   5  -3  -7    9.90    4.30
  -5   2   7    1.20    1.80
  -5   2   7    8.30    6.60
  -5   2   7    3.10    3.10
   5  -2  -7    2.50    2.50
  -5   1   7   31.70    9.70
  -5   1   7   49.80   23.70
  -5   1   7   29.80   12.10
   5  -1  -7   28.50    8.60
  -5   0   7    9.00    4.30
  -5   0   7    3.20    4.70
  -5   0   7    5.10    4.00
   5   0  -7    4.90    3.30
   5   0  -7   10.60    8.80
  -5  -1   7   40.70   11.50
  -5  -1   7   41.40   20.10
  -5  -1   7   45.80   18.50
   5   1  -7   28.70    8.20
   5   1  -7   22.70   11.90
  -5  -2   7    5.00    3.10
  -5  -2   7    5.20    5.90
  -5  -2   7   16.70    7.90
   5   2  -7    4.60    2.90
   5   2  -7    0.10    1.70
  -5  -3   7    4.40    2.70
  -5  -3   7    7.20    6.60
   5   3  -7    4.80    5.80
  -5  -4   7    1.30    4.30
  -5  -4   7    1.80    2.80
   6  -1   2   23.80    6.00
   6  -1   2   81.79   37.10
   6  -1   2   34.50   12.60
  -6   0  -2   14.20    3.80
   6   0   2   15.60    4.20
   6   0   2   13.90    5.60
   6   0   2   23.20   12.00
  -6  -1  -2   35.70    8.50
   6   1   2   39.80    9.30
   6   1   2   28.40   10.50
   6   1   2    0.90    5.20
   6  -4   1   12.10    7.40
   6  -4   1   22.70    8.60
   6  -3   1    3.00    3.80
   6  -3   1   10.90    4.60
  -6   2  -1   76.79   19.80
   6  -2   1  165.78   76.99
   6  -2   1  182.28   64.99
  -6   1  -1    2.30    1.60
   6  -1   1    1.00    1.40
   6  -1   1    2.80    2.00
   6  -1   1   11.50    6.50
  -6   0  -1    1.40    1.30
   6   0   1    1.90    1.50
   6   0   1    1.80    1.50
   6   0   1    3.80    4.60
  -6  -1  -1    2.00    7.10
  -6  -1  -1    0.90    1.20
   6   1   1    2.50    1.80
   6   1   1    2.50    1.80
   6   1   1    1.60    3.60
  -6  -2  -1  132.19   33.40
   6   2   1   37.30   13.60
   6   3   1    1.90    1.80
  -6   5   0   34.70    7.60
  -6   4   0    1.70    1.20
  -6   3   0   36.00    8.20
  -6   3   0   14.00   15.10
  -6   2   0   29.90   16.10
  -6   2   0    1.20    1.20
   6  -2   0    5.30    2.60
   6  -2   0    9.20    4.30
  -6   1   0   23.80   13.10
  -6   1   0    4.20    1.90
  -6   1   0    7.90    3.50
  -6   1   0   17.30    7.40
   6  -1   0    1.90    1.50
  -6   0   0    9.10    3.00
  -6   0   0   12.20    9.00
   6   0   0    6.40    2.60
  -6  -1   0    3.60    1.90
  -6  -1   0    7.90    8.20
  -6  -1   0    1.20    1.60
   6   1   0    2.30    1.60
  -6  -2   0    3.70    1.90
  -6  -2   0   10.10   10.60
  -6  -3   0   64.79   27.90
  -6  -5   0   -2.80   10.30
  -6   7   1    0.60    1.10
  -6   7   1    3.20   15.90
  -6   6   1    2.10    1.60
  -6   6   1    2.30   16.50
  -6   5   1    1.90    1.40
  -6   5   1    0.10   11.30
  -6   4   1    6.00    2.40
  -6   4   1    3.70    9.90
  -6   3   1    5.80   10.10
  -6   2   1    2.10    1.60
  -6   2   1   11.20   11.90
   6  -2  -1    1.80    1.60
  -6   1   1    1.40    1.50
  -6   1   1    7.60    9.30
  -6   1   1    6.50    2.80
   6  -1  -1    1.90    1.50
   6  -1  -1    3.30    1.80
   6  -1  -1   10.00    5.20
  -6   0   1    1.90    1.50
  -6   0   1    2.60    7.90
  -6   0   1   10.40    4.40
   6   0  -1    0.20    1.10
  -6  -1   1    0.50    1.30
  -6  -1   1   16.00   12.60
   6   1  -1    2.70    1.90
  -6  -2   1   20.60    5.40
  -6  -2   1    8.00   10.70
  -6  -3   1   12.50   13.20
  -6  -5   1   -0.80    9.00
  -6  -6   1   -3.20   10.60
  -6   8   2    1.20    1.70
  -6   8   2  -21.80   23.00
  -6   7   2   37.70    8.70
  -6   7   2   -4.40   15.30
  -6   6   2   49.60   10.90
  -6   6   2   12.80   19.20
  -6   5   2   35.60    8.40
  -6   5   2   50.99   26.40
   6  -5  -2   87.89   42.00
  -6   4   2   12.10    6.30
  -6   4   2   24.20   17.60
  -6   4   2    4.10    3.20
  -6   4   2   26.70    7.00
   6  -4  -2   13.10   18.10
   6  -4  -2    4.60    3.40
   6  -4  -2    3.90    4.50
  -6   3   2   94.99   42.00
  -6   3   2  127.69   26.40
  -6   3   2   77.99   35.30
  -6   3   2   82.79   33.10
   6  -3  -2  172.68   67.79
   6  -3  -2  144.49   65.09
   6  -3  -2  108.19   43.00
  -6   2   2   37.60    9.00
  -6   2   2   80.39   34.30
  -6   2   2   69.29   31.40
  -6   2   2   41.30   16.80
   6  -2  -2   32.60    7.90
   6  -2  -2   81.99   35.60
   6  -2  -2   22.20    9.40
   6  -2  -2   94.29   42.70
  -6   1   2   26.00   16.40
  -6   1   2    5.30    2.80
  -6   1   2    9.30    4.60
   6  -1  -2    4.60    2.40
   6  -1  -2   12.30    5.50
   6  -1  -2   18.80   14.20
  -6   0   2    2.60    2.10
  -6   0   2    7.80   10.60
  -6   0   2   28.30   13.30
  -6   0   2   15.60    6.80
   6   0  -2    2.10    1.90
   6   0  -2    4.30    9.50
   6   0  -2   15.50    6.90
   6   0  -2   25.00   12.60
  -6  -1   2   11.40   13.60
  -6  -1   2    4.30    2.60
  -6  -1   2   22.40   11.00
  -6  -1   2   40.10   16.30
   6   1  -2   32.60   13.50
   6   1  -2    8.90   10.80
  -6  -2   2   31.60   19.00
   6   2  -2   28.60   17.40
  -6  -3   2  111.79   47.60
  -6  -5   2   26.50   17.10
  -6  -6   2   -3.60   11.70
  -6  10   3    0.40    1.20
  -6   9   3    0.50    1.60
  -6   8   3   19.50    6.30
  -6   8   3    1.60    8.30
   6  -8  -3    4.80   17.70
  -6   7   3   15.70    4.40
  -6   7   3   -3.80   40.80
  -6   7   3   10.60    6.50
  -6   6   3    4.20   11.20
  -6   6   3    9.20    3.30
  -6   6   3    3.40    3.60
  -6   6   3    5.50    4.80
   6  -6  -3    8.20   18.10
  -6   5   3   10.40   11.60
  -6   5   3    5.60    2.90
  -6   5   3    1.90    2.90
  -6   5   3    2.40    3.80
  -6   4   3   17.80   14.60
  -6   4   3   17.60    8.40
  -6   4   3   12.90    6.40
   6  -4  -3   22.90   16.10
  -6   3   3  117.49   53.09
  -6   3   3   59.09   28.00
  -6   3   3   67.09   27.40
   6  -3  -3   71.59   32.20
   6  -3  -3   92.09   37.30
   6  -3  -3  139.89   63.29
  -6   2   3   33.80   20.10
   6  -2  -3   20.00   13.70
   6  -2  -3   16.50    7.50
  -6   1   3   48.20   22.30
  -6   1   3   18.50   14.50
  -6   1   3   21.70    9.50
   6  -1  -3   18.60   13.90
   6  -1  -3   34.50   14.60
   6  -1  -3   29.70   14.70
  -6   0   3   16.90   13.40
  -6   0   3    0.00    1.60
  -6   0   3    2.50    3.70
  -6   0   3    2.60    3.20
   6   0  -3    0.90    1.60
   6   0  -3   14.50    6.80
   6   0  -3   14.30   12.80
  -6  -1   3   42.50   24.50
  -6  -1   3   25.10    7.00
   6   1  -3   47.70   24.30
   6   1  -3   21.90    9.60
  -6  -2   3   44.00   24.40
  -6  -2   3   80.59   17.50
  -6  -2   3   23.00   11.80
  -6  -2   3   27.70   12.00
   6   2  -3   27.20   16.80
   6   2  -3   21.40    9.60
  -6  -3   3   63.19   31.80
  -6  -3   3  117.79   47.50
   6   3  -3   38.90   22.00
  -6  -4   3   44.40   19.10
   6   4  -3   10.10   13.80
  -6  -5   3   -0.20    9.80
  -6  -5   3   17.80    8.80
   6   5  -3    3.20    9.80
  -6  -6   3   -0.10   11.20
  -6   9   4   27.10    7.10
  -6   9   4   15.00    6.70
  -6   8   4    0.20    5.50
  -6   8   4    0.90    1.60
  -6   8   4    2.30    2.60
  -6   8   4    1.60    4.30
   6  -8  -4   -1.10   15.20
  -6   7   4    5.20    9.70
  -6   7   4   14.20    5.40
  -6   7   4    6.00    3.90
  -6   7   4    6.40    6.10
   6  -7  -4   28.50   23.10
  -6   6   4   27.50   21.60
  -6   6   4   30.30    7.80
  -6   6   4   39.90   18.80
  -6   6   4   31.60   14.70
  -6   5   4   94.59   41.30
  -6   5   4   16.80    5.10
  -6   5   4   15.50    8.60
  -6   5   4   30.00   14.00
   6  -5  -4  110.09   45.20
  -6   4   4   40.30   23.50
  -6   4   4   47.00   10.80
  -6   4   4   19.10    9.10
  -6   4   4   54.19   23.40
   6  -4  -4   31.40   19.90
  -6   3   4   72.09   32.10
  -6   3   4   80.59   17.60
  -6   3   4   53.09   22.50
  -6   3   4  155.78   65.09
   6  -3  -4  104.59   40.50
  -6   2   4   49.20   25.60
  -6   2   4    7.70    3.40
  -6   2   4   17.10    8.30
  -6   2   4   19.10    9.10
   6  -2  -4    5.70    2.90
   6  -2  -4   20.80   15.50
  -6   1   4   11.80   12.50
  -6   1   4   20.70    5.90
  -6   1   4   25.70   11.60
  -6   1   4   29.30   13.30
   6  -1  -4   10.80    3.90
   6  -1  -4   10.10   10.80
  -6   0   4   39.80   22.00
  -6   0   4   39.10    9.70
  -6   0   4   91.59   38.00
  -6   0   4   50.39   21.90
   6   0  -4   43.60   10.40
   6   0  -4   41.80   21.20
  -6  -1   4   17.40   14.70
  -6  -1   4   15.00    4.90
  -6  -1   4   22.20   10.50
  -6  -1   4   27.40   12.90
   6   1  -4   13.10    4.50
   6   1  -4   20.10   15.50
  -6  -2   4   14.70   14.80
  -6  -2   4   11.40    4.10
  -6  -2   4   11.00    6.10
  -6  -2   4   26.50   12.20
   6   2  -4   20.00   15.90
  -6  -3   4   76.79   34.80
  -6  -3   4  108.59   46.00
  -6  -3   4  126.39   51.59
   6   3  -4   57.59   26.50
  -6  -4   4   11.50   15.30
  -6  -4   4   35.60   16.20
  -6  -4   4   57.49   24.30
   6   4  -4   16.80   16.20
  -6  -5   4    4.90   13.70
  -6  -5   4   86.79   38.80
   6   5  -4    7.90   13.20
  -6  -6   4   -1.30   11.40
  -6  -6   4   71.99   32.80
  -6  -7   4   34.10   13.50
   6   7  -4   -2.60   10.60
  -6   8   5    2.20    1.90
  -6   8   5    3.00    5.00
  -6   8   5    2.20    2.80
  -6   7   5   27.80    8.10
  -6   7   5   24.90   12.60
  -6   7   5   27.10   10.70
  -6   6   5    3.30    3.00
  -6   6   5    2.00    4.20
  -6   6   5    2.80    3.00
  -6   5   5  100.89   42.80
  -6   5   5   13.50    5.40
  -6   5   5    6.10    4.10
  -6   5   5   95.09   45.00
   6  -5  -5  144.79   57.09
  -6   4   5   52.39   29.10
  -6   4   5    3.80    2.30
  -6   4   5    2.30    3.50
  -6   4   5    6.50    4.90
   6  -4  -5   68.99   33.60
  -6   3   5   76.99   40.40
  -6   3   5   58.09   13.50
  -6   3   5   59.89   27.50
  -6   3   5   96.49   41.80
   6  -3  -5   68.19   36.50
  -6   2   5   13.10   14.10
  -6   2   5   31.50   14.70
  -6   2   5    4.00    4.10
   6  -2  -5   10.00   13.50
  -6   1   5   35.50   19.60
  -6   1   5    8.60    3.60
  -6   1   5   13.10    7.30
  -6   1   5    9.90    6.20
   6  -1  -5   15.70   15.50
  -6   0   5   10.50   12.70
  -6   0   5   -0.60    1.10
  -6   0   5    0.60    3.00
  -6   0   5    3.00    3.80
   6   0  -5    0.20    1.50
   6   0  -5   14.90   13.20
  -6  -1   5   16.30   14.40
  -6  -1   5    5.70    2.90
  -6  -1   5   51.99   24.00
  -6  -1   5    2.40    4.40
   6   1  -5   12.40   13.40
  -6  -2   5   15.60   17.90
  -6  -2   5    3.50    2.40
  -6  -2   5    3.20    3.60
  -6  -2   5    6.80    6.00
   6   2  -5   18.20   17.90
  -6  -3   5   39.50   26.60
  -6  -3   5   78.59   17.90
  -6  -3   5   57.69   26.40
  -6  -3   5   61.69   27.40
   6   3  -5   34.20   23.00
  -6  -4   5    4.00   12.40
  -6  -4   5    3.90    4.80
  -6  -4   5   16.70    8.90
   6   4  -5    2.10   14.30
  -6  -5   5    1.80    9.60
  -6  -5   5    2.20    4.20
  -6  -5   5   26.50   10.80
   6   5  -5   -0.50   10.20
  -6  -6   5   10.00   11.70
  -6  -6   5    3.80    4.60
  -6  -6   5   12.00    6.40
  -6  -7   5  106.49   38.70
  -6   5   6    7.60    3.50
  -6   5   6   31.30   15.40
  -6   5   6    4.50    4.00
  -6   4   6   62.79   15.90
  -6   4   6  123.49   55.69
  -6   3   6   81.79   20.30
  -6   3   6   97.39   44.20
  -6   3   6  100.79   36.60
  -6   2   6    6.60    9.80
  -6   2   6    3.90    3.00
  -6   2   6    5.10    3.80
  -6   2   6   24.80   13.50
   6  -2  -6    1.10    2.30
   6  -2  -6    5.00    9.10
  -6   1   6   49.00   23.90
  -6   1   6   11.40    5.40
  -6   1   6   20.70    8.90
  -6   1   6   33.90   17.20
   6  -1  -6   13.10    6.00
   6  -1  -6   28.80   16.40
  -6   0   6  155.98   63.09
  -6   0   6  228.98   58.79
  -6   0   6  312.37  112.19
  -6   0   6  273.97  127.59
   6   0  -6  182.58   47.30
   6   0  -6  187.58   70.79
  -6  -1   6   16.00    6.80
  -6  -1   6   37.80   21.50
  -6  -1   6   23.80   10.10
   6   1  -6   40.50   21.00
  -6  -2   6  227.08   57.99
  -6  -2   6    1.60    4.80
  -6  -2   6    3.60    3.30
   6   2  -6   32.60   19.70
  -6  -3   6  116.29   27.50
  -6  -3   6   47.80   22.70
  -6  -3   6  146.39   53.29
  -6  -4   6   93.49   42.70
  -6  -5   6   14.80    9.00
  -6  -5   6   15.10    6.80
  -7   3   1    4.20    2.40
  -7   2   1    0.70    1.20
   7  -2  -1    3.30    2.40
  -7   1   1   27.90    7.80
  -7   1   1   44.10   19.70
  -7   0   1   16.60    5.20
  -7   0   1   59.19   20.90
  -7  -1   1   36.90    9.70
  -7  -2   1    6.60    3.00
  -7   4   2    4.60    3.70
  -7   4   2    8.20    3.60
  -7   3   2    8.20    3.50
  -7   3   2    1.50    1.60
  -7   2   2  299.47  138.49
  -7   2   2  183.18   46.80
  -7   2   2  150.18   53.59
   7  -2  -2  448.06  207.18
   7  -2  -2  106.39   38.20
  -7   1   2   81.89   22.40
  -7   1   2   55.29   20.00
   7  -1  -2   72.19   25.90
  -7   0   2    1.10    1.80
  -7  -1   2   32.60   15.90
  -7  -1   2   81.09   22.30
  -7  -1   2   99.99   35.80
   7   1  -2  111.79   40.10
  -7  -2   2  250.97   63.09
  -7  -2   2  294.07  104.69
  -7   5   3    2.00    3.60
  -7   5   3    0.80    1.80
  -7   4   3    5.20    3.10
  -7   4   3   10.90    6.10
  -7   4   3    6.50    3.20
  -7   3   3    2.90    9.80
  -7   3   3    0.70    1.40
  -7   3   3    8.10    3.80
  -7   3   3    5.60    3.90
  -7   2   3    0.70    1.70
  -7   2   3    3.20    9.30
  -7   2   3    7.50    5.00
  -7   1   3    4.50    9.60
  -7   1   3    2.70    2.40
  -7   1   3    1.80    1.70
  -7   1   3  108.29   50.59
  -7   0   3   12.20   11.60
  -7   0   3    5.90    4.60
  -7   0   3   21.70    8.50
  -7  -1   3    1.90    2.30
  -7  -1   3   18.10   14.90
  -7  -1   3   17.60    9.30
  -7  -2   3    4.20   10.70
  -7  -2   3    1.10    2.00
  -7  -2   3    2.70    2.20
  -7  -2   3    5.40    4.60
  -7  -3   3    2.60    2.70
  -7  -3   3    4.90   13.00
  -7  -3   3   33.50   12.70
  -7  -4   3   29.50   11.30
  -7   4   4    8.90    3.90
  -7   4   4   33.10   15.80
  -7   4   4   17.40    7.30
  -7   3   4   39.10   10.50
  -7   3   4   55.89   25.60
  -7   3   4   19.70    8.10
  -7   2   4  248.68   93.39
  -7   2   4  263.87   59.69
  -7   2   4  279.37   98.39
  -7   2   4  382.56  169.58
  -7   1   4  135.89   54.39
  -7   1   4    4.20    3.20
  -7   1   4    7.90    4.10
  -7   1   4   14.20    7.80
  -7   0   4    0.60    1.60
  -7   0   4   44.20   21.80
  -7   0   4    0.00    2.00
  -7  -1   4    3.10    3.00
  -7  -1   4   14.50   15.40
  -7  -1   4   11.60    5.60
  -7  -2   4  283.67  106.69
  -7  -2   4  364.26   80.19
  -7  -2   4  182.08   64.49
  -7  -2   4  197.78   88.19
  -7  -3   4   36.60   10.30
  -7  -3   4   55.79   26.00
  -7  -3   4   39.70   14.90
  -7  -4   4    9.90    6.70
  -7  -4   4   72.59   26.40
  -7   2   5    6.60    3.50
  -7   1   5   37.60   10.50
  -7   1   5   93.59   42.50
  -7   1   5   48.00   18.00
  -7   0   5   19.00    6.50
  -7   0   5   39.90   19.10
  -7   0   5   40.30   15.50
  -7  -1   5   51.49   13.70
  -7  -1   5   12.90    8.00
  -7  -1   5   78.09   28.80
  -7  -2   5   12.40    4.70
   0   0   0    0.00    0.00

_computing_structure_solution     'SHELXT 2018/2 (Sheldrick, 2018)'
;
_shelx_hkl_checksum              92916
loop_
_space_group_symop_operation_xyz
'x, y, z'
'-x+1/2, y+1/2, -z+1/2'
'-x, -y, -z'
'x-1/2, -y-1/2, z-1/2'
loop_
_atom_site_label
_atom_site_type_symbol
_atom_site_fract_x
_atom_site_fract_y
_atom_site_fract_z
_atom_site_U_iso_or_equiv
_atom_site_adp_type
_atom_site_occupancy
_atom_site_site_symmetry_order
_atom_site_calc_flag
_atom_site_refinement_flags_posn
N1 N 0.7972(8) 0.4117(4) 0.2407(7) 0.0189(14) Uani 1 1 d .
H1 H 0.783(2) 0.3985(13) 0.044(3) 0.026(4) Uiso 1 1 calc R
H2 H 0.991(3) 0.3808(12) 0.371(3) 0.026(4) Uiso 1 1 calc R
H3 H 0.785(2) 0.4970(16) 0.273(4) 0.026(4) Uiso 1 1 calc R
C1 C 0.5643(10) 0.3544(5) 0.2867(8) 0.0179(15) Uani 1 1 d .
H4 H 0.5802(12) 0.263(4) 0.2559(15) 0.082(12) Uiso 1 1 calc R
H5 H 0.358(8) 0.3842(12) 0.140(6) 0.082(12) Uiso 1 1 calc R
C2 C 0.5715(10) 0.3752(5) 0.5667(7) 0.0161(14) Uani 1 1 d .
O1 O 0.8055(7) 0.4057(4) 0.7369(6) 0.0183(13) Uani 1 1 d .
O2 O 0.3487(9) 0.3603(5) 0.6068(7) 0.0240(14) Uani 1 1 d .
loop_
_atom_site_aniso_label
_atom_site_aniso_U_11
_atom_site_aniso_U_22
_atom_site_aniso_U_33
_atom_site_aniso_U_23
_atom_site_aniso_U_13
_atom_site_aniso_U_12
N1 0.015(2) 0.039(4) 0.0049(18) 0.0001(14) 0.0059(14) -0.0053(19)
C1 0.017(2) 0.033(4) 0.0044(18) -0.0016(16) 0.0040(15) -0.005(2)
C2 0.014(2) 0.030(4) 0.0037(18) -0.0016(16) 0.0030(15) -0.002(2)
O1 0.0120(18) 0.041(3) 0.0050(16) -0.0043(13) 0.0068(13) -0.0049(16)
O2 0.018(2) 0.048(4) 0.0113(18) 0.0016(14) 0.0105(14) -0.0005(19)
loop_
_atom_type_symbol
_atom_type_description
_atom_type_scat_dispersion_real
_atom_type_scat_dispersion_imag
_atom_type_scat_source
C C 0.0000 0.0000 'International Tables Vol C Tables 4.2.6.8 and 6.1.1.4'
N N 0.0000 0.0000 'International Tables Vol C Tables 4.2.6.8 and 6.1.1.4'
O O 0.0000 0.0000 'International Tables Vol C Tables 4.2.6.8 and 6.1.1.4'
H H 0.0000 0.0000 'International Tables Vol C Tables 4.2.6.8 and 6.1.1.4'
loop_
_geom_angle_atom_site_label_1
_geom_angle_atom_site_label_2
_geom_angle_atom_site_label_3
_geom_angle
N1 C1 C2 111.1(4)
O2 C2 O1 126.2(4)
O2 C2 C1 117.0(4)
O1 C2 C1 116.8(4)
loop_
_geom_bond_atom_site_label_1
_geom_bond_atom_site_label_2
_geom_bond_distance
N1 C1 1.509(6)
C1 C2 1.566(6)
C2 O2 1.275(6)
C2 O1 1.304(6)
